! B3LYP 6-31G
!TightSCF
%scf
 ConvForced true
 convergence tight
 MaxIter 500
end
 
%tddft 
 nroots 1
end

# 	7509
* xyz 0 1
		C   -1.220525  -0.360629  -0.077161
		O   -1.503306  -1.245131  -0.751790
		C    0.002839   0.410192  -0.251693
		C    1.218272   0.021170   0.191135
		H   -1.760386   0.021990   0.939155
		H   -0.122848   1.418288  -0.630610
		H    1.335244  -0.965710   0.599137
		H    2.037004   0.723067   0.009938
*
