! B3LYP 6-31G
!TightSCF
%scf
 ConvForced true
 convergence tight
 MaxIter 500
end
 
%tddft 
 nroots 1
end

# 	28324
* xyz 0 1
		C   -0.548499  -0.395195  -0.000858
		O   -0.602439  -1.647758   0.010574
		C    0.634712   0.401834   0.004529
		C    1.815943  -0.139072   0.001746
		H   -1.375020   0.064485  -0.146860
		H    0.419063   1.460703   0.047737
		H    2.139141  -1.089756  -0.163240
		H    2.686657   0.570908   0.038767
*
