! B3LYP 6-31G
!TightSCF
%scf
 ConvForced true
 convergence tight
 MaxIter 500
end
 
%tddft 
 nroots 1
end

# 	15684
* xyz 0 1
		C   -1.191243  -0.366801  -0.002862
		O   -1.386607  -1.426666  -0.557303
		C    0.025038   0.513869  -0.139655
		C    1.254093   0.000973   0.057020
		H   -1.966438   0.005175   0.568554
		H   -0.153697   1.636117  -0.301511
		H    1.284335  -1.142284   0.343296
		H    2.183569   0.688769   0.033576
*
