! B3LYP 6-31G
!TightSCF
%scf
 ConvForced true
 convergence tight
 MaxIter 500
end
 
%tddft 
 nroots 1
end

# 	25643
* xyz 0 1
		C   -0.588286  -0.431910   0.010088
		O   -0.545473  -1.635122  -0.005306
		C    0.647524   0.457661  -0.023586
		C    1.788152  -0.137544   0.032911
		H   -1.616203   0.022181  -0.003615
		H    0.538866   1.508198   0.075810
		H    1.732265  -1.232338  -0.042206
		H    2.939755   0.211678  -0.183167
*
