! B3LYP 6-31G
!TightSCF
%scf
 ConvForced true
 convergence tight
 MaxIter 500
end
 
%tddft 
 nroots 1
end

# 	28937
* xyz 0 1
		C   -0.568512  -0.375016  -0.077857
		O   -0.535233  -1.673122   0.036945
		C    0.588932   0.478066   0.048991
		C    1.823805  -0.179183  -0.012012
		H   -1.505139   0.320371   0.005999
		H    0.263139   1.493136   0.060539
		H    2.002715  -1.318625  -0.183127
		H    2.688808   0.280520   0.024692
*
