! B3LYP 6-31G
!TightSCF
%scf
 ConvForced true
 convergence tight
 MaxIter 500
end
 
%tddft 
 nroots 1
end

# 	10112
* xyz 0 1
		C   -1.198551  -0.358061  -0.008694
		O   -1.676803  -1.060294  -0.871967
		C    0.006650   0.442558  -0.228218
		C    1.284487   0.040304   0.101131
		H   -1.686258  -0.236642   0.974009
		H   -0.154880   1.369704  -0.737050
		H    1.328890  -0.867257   0.750015
		H    2.113371   0.670670  -0.029819
*
