! B3LYP 6-31G
!TightSCF
%scf
 ConvForced true
 convergence tight
 MaxIter 500
end
 
%tddft 
 nroots 1
end

# 	7673
* xyz 0 1
		C   -1.134913  -0.438181   0.063477
		O   -1.824557  -0.991319   0.846143
		C   -0.007862   0.364733   0.364595
		C    1.195457   0.063155  -0.190043
		H   -1.602037  -0.212206  -1.102367
		H   -0.119384   1.420767   0.747267
		H    1.370375  -0.790389  -0.711984
		H    2.145475   0.650141  -0.066483
*
