! B3LYP 6-31G
!TightSCF
%scf
 ConvForced true
 convergence tight
 MaxIter 500
end
 
%tddft 
 nroots 1
end

# 	31959
* xyz 0 1
		C   -0.587047  -0.444630   0.028442
		O   -0.637925  -1.677734  -0.008868
		C    0.626718   0.402780  -0.069419
		C    1.944335  -0.069051   0.034997
		H   -1.675401   0.135861   0.224490
		H    0.371448   1.483978  -0.037172
		H    2.083770  -1.167472  -0.214336
		H    2.672056   0.752890   0.250338
*
