! B3LYP 6-31G
!TightSCF
%scf
 ConvForced true
 convergence tight
 MaxIter 500
end
 
%tddft 
 nroots 1
end

# 	20436
* xyz 0 1
		C   -0.619767  -0.434117  -0.004020
		O   -0.548777  -1.629670   0.002245
		C    0.657183   0.447558   0.015252
		C    1.825849  -0.131714  -0.006780
		H   -1.583956   0.021167  -0.010726
		H    0.453263   1.435298  -0.086468
		H    1.763700  -1.273433  -0.055207
		H    2.811736   0.318705   0.064484
*
