! B3LYP 6-31G
!TightSCF
%scf
 ConvForced true
 convergence tight
 MaxIter 500
end
 
%tddft 
 nroots 1
end

# 	5558
* xyz 0 1
		C   -1.193722  -0.354415   0.144908
		O   -2.041121  -0.522566   0.925636
		C    0.058456   0.379619   0.373152
		C    1.222509   0.082883  -0.397402
		H   -1.293434  -0.776646  -0.985494
		H   -0.024468   1.106171   1.146345
		H    1.206915  -0.617337  -1.001638
		H    2.032059   0.650503  -0.207638
*
