! B3LYP 6-31G
!TightSCF
%scf
 ConvForced true
 convergence tight
 MaxIter 500
end
 
%tddft 
 nroots 1
end

# 	1073
* xyz 0 1
		C   -1.197767  -0.314341   0.062427
		O   -1.964216  -0.645923   0.918357
		C   -0.035821   0.479903   0.227456
		C    1.155016   0.063589  -0.185834
		H   -1.508671  -0.715682  -1.027537
		H   -0.009605   1.410783   0.939731
		H    1.413540  -0.767825  -0.900988
		H    2.067407   0.592441  -0.060960
*
