! B3LYP 6-31G
!TightSCF
%scf
 ConvForced true
 convergence tight
 MaxIter 500
end
 
%tddft 
 nroots 1
end

# 	13318
* xyz 0 1
		C   -1.170041  -0.348080   0.063653
		O   -2.192215  -0.416225   0.763057
		C   -0.019020   0.400446   0.412994
		C    1.166666   0.162089  -0.321850
		H   -1.189601  -0.943707  -0.918895
		H   -0.112375   1.135484   0.996914
		H    1.300653  -0.439662  -1.083226
		H    2.237237   0.482813   0.096537
*
