! B3LYP 6-31G
!TightSCF
%scf
 ConvForced true
 convergence tight
 MaxIter 500
end
 
%tddft 
 nroots 1
end

# 	7635
* xyz 0 1
		C   -1.196260  -0.419960   0.076414
		O   -2.040450  -0.562188   0.933314
		C    0.017628   0.468541   0.309542
		C    1.205207   0.139301  -0.314006
		H   -1.375256  -0.909947  -0.895814
		H    0.116730   1.297642   1.033071
		H    1.227153  -0.637681  -1.056236
		H    2.091690   0.674079  -0.032120
*
