! B3LYP 6-31G
!TightSCF
%scf
 ConvForced true
 convergence tight
 MaxIter 500
end
 
%tddft 
 nroots 1
end

# 	31402
* xyz 0 1
		C   -0.502311  -0.365190  -0.060890
		O   -0.544236  -1.630458   0.024018
		C    0.602635   0.368555   0.062281
		C    1.771552  -0.167661  -0.009147
		H   -1.594823   0.387704  -0.020386
		H    0.553457   1.599424  -0.074650
		H    1.850516  -1.227742  -0.131530
		H    2.501778   0.380385  -0.066109
*
