! B3LYP 6-31G
!TightSCF
%scf
 ConvForced true
 convergence tight
 MaxIter 500
end
 
%tddft 
 nroots 1
end

# 	32397
* xyz 0 1
		C   -0.549380  -0.441154   0.036476
		O   -0.614120  -1.644552  -0.024193
		C    0.611922   0.391637  -0.030520
		C    1.848309  -0.084932   0.009578
		H   -1.278811   0.145145   0.198816
		H    0.586860   1.427211  -0.187081
		H    1.799418  -1.151981   0.058893
		H    2.837299   0.502035   0.122527
*
