! B3LYP 6-31G
!TightSCF
%scf
 ConvForced true
 convergence tight
 MaxIter 500
end
 
%tddft 
 nroots 1
end

# 	26241
* xyz 0 1
		C   -0.572011  -0.422592   0.034870
		O   -0.580782  -1.650503  -0.026998
		C    0.586437   0.435548  -0.012984
		C    1.846491  -0.139882   0.019374
		H   -1.472548   0.036967   0.012326
		H    0.624200   1.633145  -0.034159
		H    2.081188  -1.186206   0.229195
		H    2.807170   0.484302  -0.291676
*
