! B3LYP 6-31G
!TightSCF
%scf
 ConvForced true
 convergence tight
 MaxIter 500
end
 
%tddft 
 nroots 1
end

# 	7024
* xyz 0 1
		C   -1.149750  -0.375716   0.020564
		O   -1.345933  -1.507650   0.455261
		C   -0.007864   0.494760   0.066831
		C    1.193823   0.014483  -0.177525
		H   -2.058984   0.174818  -0.539665
		H    0.174196   1.686672   0.417620
		H    1.228677  -0.960531  -0.358542
		H    1.999039   0.539152   0.101592
*
