! B3LYP 6-31G
!TightSCF
%scf
 ConvForced true
 convergence tight
 MaxIter 500
end
 
%tddft 
 nroots 1
end

# 	16803
* xyz 0 1
		C   -1.250229  -0.402843   0.079466
		O   -1.293389  -1.618343   0.249342
		C    0.040522   0.439427   0.115043
		C    1.232800  -0.014952   0.011338
		H   -2.173500   0.204189  -0.334158
		H   -0.087021   1.518877   0.045060
		H    1.545578  -0.976599  -0.118102
		H    2.000105   0.905209  -0.131976
*
