! B3LYP 6-31G
!TightSCF
%scf
 ConvForced true
 convergence tight
 MaxIter 500
end
 
%tddft 
 nroots 1
end

# 	25511
* xyz 0 1
		C   -0.626126  -0.504646   0.013943
		O   -0.576574  -1.651151   0.010202
		C    0.616085   0.489558  -0.044477
		C    1.893707  -0.100877   0.002079
		H   -1.400957   0.278067  -0.090423
		H    0.300196   1.563751   0.237075
		H    1.797627  -1.419427  -0.114660
		H    2.950625   0.414632   0.167287
*
