! B3LYP 6-31G
!TightSCF
%scf
 ConvForced true
 convergence tight
 MaxIter 500
end
 
%tddft 
 nroots 1
end

# 	10382
* xyz 0 1
		C   -1.163202  -0.357215  -0.007593
		O   -1.225005  -1.570319   0.263257
		C    0.053626   0.539451   0.121905
		C    1.239926  -0.016095  -0.079413
		H   -2.097879   0.307558  -0.449901
		H   -0.106312   1.550006   0.318494
		H    1.198152  -1.082613  -0.072030
		H    2.092652   0.590807  -0.003346
*
