! B3LYP 6-31G
!TightSCF
%scf
 ConvForced true
 convergence tight
 MaxIter 500
end
 
%tddft 
 nroots 1
end

# 	21393
* xyz 0 1
		C   -0.531774  -0.438807  -0.018485
		O   -0.577122  -1.619725   0.012920
		C    0.620575   0.412593   0.039090
		C    1.808739  -0.143353  -0.009397
		H   -1.475279   0.216414  -0.235267
		H    0.386050   1.595344   0.084240
		H    1.846643  -1.317190  -0.009929
		H    2.767117   0.501080  -0.179814
*
