! B3LYP 6-31G
!TightSCF
%scf
 ConvForced true
 convergence tight
 MaxIter 500
end
 
%tddft 
 nroots 1
end

# 	27643
* xyz 0 1
		C   -0.647738  -0.464362   0.070983
		O   -0.573849  -1.657065  -0.033461
		C    0.653794   0.483471  -0.049875
		C    1.865561  -0.150669   0.012074
		H   -1.491509   0.172441   0.023674
		H    0.554523   1.520790  -0.057350
		H    2.164935  -1.047463   0.151046
		H    2.552344   0.502012   0.013223
*
