! B3LYP 6-31G
!TightSCF
%scf
 ConvForced true
 convergence tight
 MaxIter 500
end
 
%tddft 
 nroots 1
end

# 	23524
* xyz 0 1
		C   -0.606850  -0.475786  -0.036763
		O   -0.601273  -1.647830   0.019608
		C    0.626560   0.398640   0.039598
		C    1.861642  -0.072650  -0.033763
		H   -1.472999   0.280443  -0.058831
		H    0.514758   1.627748   0.020299
		H    2.107671  -1.141502  -0.001934
		H    2.944498   0.454980   0.105716
*
