! B3LYP 6-31G
!TightSCF
%scf
 ConvForced true
 convergence tight
 MaxIter 500
end
 
%tddft 
 nroots 1
end

# 	3335
* xyz 0 1
		C   -1.195263  -0.328531  -0.055531
		O   -1.956756  -0.762791  -0.882994
		C    0.074572   0.402431  -0.317809
		C    1.148392   0.070559   0.204883
		H   -1.393026  -0.473009   1.106635
		H   -0.026756   1.013004  -0.963460
		H    1.202870  -0.596607   0.909034
		H    2.140356   0.653097  -0.051672
*
