! B3LYP 6-31G
!TightSCF
%scf
 ConvForced true
 convergence tight
 MaxIter 500
end
 
%tddft 
 nroots 1
end

# 	5881
* xyz 0 1
		C   -1.240828  -0.366426  -0.039715
		O   -1.297776  -1.555179  -0.159130
		C   -0.027299   0.515369  -0.049868
		C    1.198451  -0.006837   0.040068
		H   -2.163087   0.271734   0.354007
		H    0.011571   1.590005  -0.106839
		H    1.378232  -1.070041   0.094729
		H    2.095243   0.563410  -0.096009
*
