! B3LYP 6-31G
!TightSCF
%scf
 ConvForced true
 convergence tight
 MaxIter 500
end
 
%tddft 
 nroots 1
end

# 	11227
* xyz 0 1
		C   -1.240067  -0.293454   0.063401
		O   -1.544410  -1.239216   0.743407
		C    0.021667   0.452805   0.200673
		C    1.177163   0.018229  -0.130410
		H   -1.781319  -0.087503  -0.922740
		H   -0.049335   1.499093   0.498684
		H    1.303464  -0.932510  -0.442778
		H    2.042092   0.545708   0.009803
*
