! B3LYP 6-31G
!TightSCF
%scf
 ConvForced true
 convergence tight
 MaxIter 500
end
 
%tddft 
 nroots 1
end

# 	30094
* xyz 0 1
		C   -0.544865  -0.417765  -0.014015
		O   -0.596223  -1.626707   0.012919
		C    0.618027   0.367108   0.013550
		C    1.820364  -0.093628  -0.019291
		H   -1.560699   0.103037  -0.074077
		H    0.593443   1.474147   0.047202
		H    2.047749  -1.208777  -0.047144
		H    2.792582   0.427969   0.114598
*
