! B3LYP 6-31G
!TightSCF
%scf
 ConvForced true
 convergence tight
 MaxIter 500
end
 
%tddft 
 nroots 1
end

# 	10831
* xyz 0 1
		C   -1.127993  -0.356864   0.034121
		O   -1.488321  -1.154148   0.813105
		C    0.063022   0.524447   0.220781
		C    1.250865   0.010190  -0.172254
		H   -1.912102  -0.054912  -0.807247
		H   -0.163409   1.432544   0.474367
		H    1.295371  -1.061760  -0.506809
		H    2.120510   0.665019  -0.057688
*
