! B3LYP 6-31G
!TightSCF
%scf
 ConvForced true
 convergence tight
 MaxIter 500
end
 
%tddft 
 nroots 1
end

# 	19375
* xyz 0 1
		C   -1.212108  -0.391925   0.054174
		O   -2.092293  -0.683503   0.850917
		C    0.042202   0.368181   0.281720
		C    1.182026   0.107209  -0.270977
		H   -1.190340  -0.715747  -1.056940
		H    0.099845   0.960374   1.174829
		H    1.118752  -0.365263  -1.047801
		H    2.047244   0.715323  -0.042662
*
