! B3LYP 6-31G
!TightSCF
%scf
 ConvForced true
 convergence tight
 MaxIter 500
end
 
%tddft 
 nroots 1
end

# 	23543
* xyz 0 1
		C   -0.662425  -0.446585  -0.068659
		O   -0.554020  -1.629603   0.038830
		C    0.656334   0.429424   0.044673
		C    1.869432  -0.127469  -0.030535
		H   -1.641944   0.168726  -0.167456
		H    0.455249   1.436776   0.279349
		H    2.063448  -1.179990  -0.003008
		H    2.647256   0.438231  -0.063573
*
