! B3LYP 6-31G
!TightSCF
%scf
 ConvForced true
 convergence tight
 MaxIter 500
end
 
%tddft 
 nroots 1
end

# 	22549
* xyz 0 1
		C   -0.551519  -0.401818   0.040961
		O   -0.579668  -1.672760  -0.019354
		C    0.643177   0.423859  -0.004796
		C    1.823090  -0.126602  -0.005160
		H   -1.605184   0.231003  -0.050002
		H    0.298193   1.571705  -0.125173
		H    1.844297  -1.263442   0.082632
		H    2.813750   0.531007   0.025369
*
