! B3LYP 6-31G
!TightSCF
%scf
 ConvForced true
 convergence tight
 MaxIter 500
end
 
%tddft 
 nroots 1
end

# 	4948
* xyz 0 1
		C   -1.204365  -0.239491   0.015253
		O   -1.501306  -1.195543   0.751247
		C   -0.021686   0.573791   0.174727
		C    1.192617   0.033906  -0.114512
		H   -1.724331  -0.060063  -1.043335
		H   -0.086940   1.475333   0.766839
		H    1.088624  -1.035318  -0.525379
		H    2.269453   0.459037  -0.056049
*
