! B3LYP 6-31G
!TightSCF
%scf
 ConvForced true
 convergence tight
 MaxIter 500
end
 
%tddft 
 nroots 1
end

# 	1534
* xyz 0 1
		C   -1.214339  -0.296594  -0.034840
		O   -1.873217  -0.918591   0.822615
		C   -0.001875   0.469472   0.224203
		C    1.132587   0.091736  -0.233187
		H   -1.418965  -0.285440  -1.020521
		H   -0.132398   1.144501   0.972956
		H    1.222937  -0.671508  -0.864507
		H    2.271553   0.427264   0.118946
*
