! B3LYP 6-31G
!TightSCF
%scf
 ConvForced true
 convergence tight
 MaxIter 500
end
 
%tddft 
 nroots 1
end

# 	13741
* xyz 0 1
		C   -1.175863  -0.311821   0.045372
		O   -1.175411  -1.474939  -0.153647
		C    0.014839   0.555674  -0.126473
		C    1.268404  -0.011898   0.023378
		H   -2.129923   0.220362   0.245809
		H   -0.263872   1.682859  -0.108365
		H    1.281615  -1.177144  -0.036294
		H    2.231997   0.530911   0.181120
*
