! B3LYP 6-31G
!TightSCF
%scf
 ConvForced true
 convergence tight
 MaxIter 500
end
 
%tddft 
 nroots 1
end

# 	1053
* xyz 0 1
		C   -1.198014  -0.321853  -0.021969
		O   -1.829779  -0.965395   0.836631
		C    0.055710   0.361932   0.343866
		C    1.273517   0.012123  -0.194567
		H   -1.464315  -0.390053  -1.157018
		H   -0.013139   1.248495   1.088932
		H    1.250648  -0.628854  -0.924529
		H    1.951267   0.621844   0.077108
*
