! B3LYP 6-31G
!TightSCF
%scf
 ConvForced true
 convergence tight
 MaxIter 500
end
 
%tddft 
 nroots 1
end

# 	24375
* xyz 0 1
		C   -0.584792  -0.412742  -0.010549
		O   -0.583879  -1.661817   0.007742
		C    0.654704   0.436381  -0.020263
		C    1.846784  -0.123607   0.005683
		H   -1.586574   0.166637   0.007329
		H    0.302274   1.352394   0.193568
		H    1.920471  -1.266189   0.025261
		H    2.736567   0.574643  -0.044011
*
