! B3LYP 6-31G
!TightSCF
%scf
 ConvForced true
 convergence tight
 MaxIter 500
end
 
%tddft 
 nroots 1
end

# 	4318
* xyz 0 1
		C   -1.210367  -0.311270   0.061818
		O   -2.196112  -0.306363   0.630408
		C    0.072716   0.429459   0.357195
		C    1.203549   0.215711  -0.299463
		H   -1.231999  -1.112364  -0.845830
		H    0.111712   0.995734   1.405268
		H    1.133967  -0.312707  -1.250972
		H    2.046855   0.474121  -0.040801
*
