! B3LYP 6-31G
!TightSCF
%scf
 ConvForced true
 convergence tight
 MaxIter 500
end
 
%tddft 
 nroots 1
end

# 	486
* xyz 0 1
		C   -1.253356  -0.405903   0.017305
		O   -1.457175  -1.352762  -0.624433
		C    0.015737   0.439323  -0.149761
		C    1.129551  -0.016402   0.135605
		H   -2.076950   0.026237   0.679365
		H    0.016466   1.548638  -0.651391
		H    1.534900  -0.859411   0.515730
		H    2.030914   0.613835   0.042452
*
