! B3LYP 6-31G
!TightSCF
%scf
 ConvForced true
 convergence tight
 MaxIter 500
end
 
%tddft 
 nroots 1
end

# 	3418
* xyz 0 1
		C   -1.131206  -0.414787  -0.062763
		O   -2.193716  -0.451780  -0.732664
		C    0.107177   0.239172  -0.383986
		C    1.185464   0.144546   0.232711
		H   -1.225453  -0.879500   0.864813
		H    0.084022   1.145114  -1.132578
		H    1.238246  -0.545150   1.122570
		H    1.970058   0.793154   0.079543
*
