! B3LYP 6-31G
!TightSCF
%scf
 ConvForced true
 convergence tight
 MaxIter 500
end
 
%tddft 
 nroots 1
end

# 	3747
* xyz 0 1
		C   -1.156490  -0.343097  -0.018663
		O   -1.419972  -1.398190  -0.653060
		C    0.015374   0.505305  -0.137009
		C    1.187992   0.026000   0.178007
		H   -2.024354   0.005884   0.694849
		H   -0.018323   1.479429  -0.529425
		H    1.315521  -0.989179   0.397268
		H    2.071154   0.648242   0.039985
*
