! B3LYP 6-31G
!TightSCF
%scf
 ConvForced true
 convergence tight
 MaxIter 500
end
 
%tddft 
 nroots 1
end

# 	6365
* xyz 0 1
		C   -1.158143  -0.266421   0.012031
		O   -1.249337  -1.412114   0.496968
		C    0.022189   0.543923   0.074580
		C    1.147348  -0.021621  -0.169315
		H   -2.139951   0.146146  -0.529440
		H   -0.109569   1.619441   0.357267
		H    1.415664  -1.181165  -0.257815
		H    2.079931   0.572905  -0.009591
*
