! B3LYP 6-31G
!TightSCF
%scf
 ConvForced true
 convergence tight
 MaxIter 500
end
 
%tddft 
 nroots 1
end

# 	11538
* xyz 0 1
		C   -1.124101  -0.343762   0.022017
		O   -2.211091  -0.311347   0.771872
		C    0.132862   0.347317   0.379948
		C    1.161977   0.282290  -0.288358
		H   -1.242923  -0.891829  -1.082422
		H   -0.041733   0.734205   1.319801
		H    1.345567  -0.558088  -1.042105
		H    1.966157   0.790053  -0.111502
*
