! B3LYP 6-31G
!TightSCF
%scf
 ConvForced true
 convergence tight
 MaxIter 500
end
 
%tddft 
 nroots 1
end

# 	20017
* xyz 0 1
		C   -0.584720  -0.448136  -0.000435
		O   -0.577603  -1.629690  -0.001599
		C    0.625065   0.412057  -0.011959
		C    1.850442  -0.129067   0.007299
		H   -1.501523   0.272194   0.078223
		H    0.549984   1.530473  -0.002065
		H    1.994801  -1.272830  -0.010698
		H    2.578692   0.579980   0.020623
*
