! B3LYP 6-31G
!TightSCF
%scf
 ConvForced true
 convergence tight
 MaxIter 500
end
 
%tddft 
 nroots 1
end

# 	31555
* xyz 0 1
		C   -0.635919  -0.454545   0.053817
		O   -0.587191  -1.625611  -0.058615
		C    0.611506   0.419921  -0.057789
		C    1.916239  -0.134747   0.062252
		H   -1.674441   0.068131   0.520086
		H    0.449568   1.461848  -0.335654
		H    2.226160  -1.083369   0.267111
		H    2.719910   0.645309  -0.256435
*
