! B3LYP 6-31G
!TightSCF
%scf
 ConvForced true
 convergence tight
 MaxIter 500
end
 
%tddft 
 nroots 1
end

# 	2243
* xyz 0 1
		C   -1.207093  -0.303140   0.084453
		O   -1.293562  -1.513988   0.404870
		C    0.072280   0.518154   0.139817
		C    1.189229   0.045421  -0.067272
		H   -2.167567   0.099707  -0.581232
		H   -0.038707   1.615539   0.297755
		H    1.308377  -1.115426  -0.281799
		H    2.142387   0.627594   0.041932
*
