! B3LYP 6-31G
!TightSCF
%scf
 ConvForced true
 convergence tight
 MaxIter 500
end
 
%tddft 
 nroots 1
end

# 	8306
* xyz 0 1
		C   -1.213316  -0.296912  -0.084928
		O   -1.358383  -1.418994  -0.686658
		C    0.055377   0.472092  -0.183241
		C    1.183113  -0.010817   0.136684
		H   -2.032969   0.046186   0.780704
		H    0.009554   1.453060  -0.505725
		H    1.205525  -0.892103   0.469368
		H    2.135186   0.693847   0.057783
*
