! B3LYP 6-31G
!TightSCF
%scf
 ConvForced true
 convergence tight
 MaxIter 500
end
 
%tddft 
 nroots 1
end

# 	31104
* xyz 0 1
		C   -0.536083  -0.423526   0.073465
		O   -0.579602  -1.606671  -0.043168
		C    0.591680   0.384917  -0.081555
		C    1.872604  -0.123551   0.046331
		H   -1.645863   0.217928   0.327197
		H    0.282695   1.314895  -0.227062
		H    1.763849  -1.312578   0.006810
		H    2.725759   0.457640   0.112952
*
