! B3LYP 6-31G
!TightSCF
%scf
 ConvForced true
 convergence tight
 MaxIter 500
end
 
%tddft 
 nroots 1
end

# 	2561
* xyz 0 1
		C   -1.190143  -0.359637   0.025710
		O   -1.205802  -1.527991   0.130074
		C    0.054477   0.541092   0.084691
		C    1.296072   0.014963  -0.000406
		H   -2.332458   0.257591  -0.046558
		H   -0.058236   1.556906  -0.138425
		H    1.351176  -1.157945  -0.048100
		H    2.069950   0.688616  -0.013447
*
