! B3LYP 6-31G
!TightSCF
%scf
 ConvForced true
 convergence tight
 MaxIter 500
end
 
%tddft 
 nroots 1
end

# 	681
* xyz 0 1
		C   -1.152082  -0.292610  -0.020922
		O   -1.238377  -1.508700  -0.013513
		C   -0.011585   0.519356  -0.005357
		C    1.208592  -0.005958  -0.001789
		H   -2.160414   0.309077  -0.087992
		H   -0.188699   1.470375   0.070589
		H    1.459723  -1.040462   0.108208
		H    2.134916   0.509265   0.008999
*
