! B3LYP 6-31G
!TightSCF
%scf
 ConvForced true
 convergence tight
 MaxIter 500
end
 
%tddft 
 nroots 1
end

# 	8763
* xyz 0 1
		C   -1.158608  -0.337429  -0.038216
		O   -1.205627  -1.452824  -0.261887
		C   -0.006910   0.539469  -0.093365
		C    1.209222  -0.010879   0.018363
		H   -2.138698   0.261544   0.292812
		H   -0.074337   1.611178  -0.084043
		H    1.313538  -1.166050   0.301190
		H    2.122962   0.530187  -0.103345
*
