! B3LYP 6-31G
!TightSCF
%scf
 ConvForced true
 convergence tight
 MaxIter 500
end
 
%tddft 
 nroots 1
end

# 	14843
* xyz 0 1
		C   -1.224067  -0.351117   0.010931
		O   -1.177002  -1.538518   0.251318
		C    0.020984   0.568065   0.064849
		C    1.266646  -0.040697  -0.055395
		H   -2.218413   0.158600  -0.141555
		H   -0.188337   1.727288   0.124123
		H    1.365456  -0.988805  -0.254079
		H    2.108966   0.463942  -0.037873
*
