! B3LYP 6-31G
!TightSCF
%scf
 ConvForced true
 convergence tight
 MaxIter 500
end
 
%tddft 
 nroots 1
end

# 	9932
* xyz 0 1
		C   -1.183370  -0.155553   0.016228
		O   -1.700414  -0.860064   0.883669
		C   -0.011794   0.559103   0.236593
		C    1.136782  -0.023542  -0.150943
		H   -1.499492  -0.247798  -1.045135
		H   -0.094150   1.353824   0.847770
		H    1.202660  -1.011467  -0.685502
		H    2.168246   0.442262  -0.077950
*
