! B3LYP 6-31G
!TightSCF
%scf
 ConvForced true
 convergence tight
 MaxIter 500
end
 
%tddft 
 nroots 1
end

# 	7534
* xyz 0 1
		C   -1.208156  -0.399408   0.027074
		O   -2.059107  -0.694729   0.839223
		C   -0.065981   0.425392   0.252548
		C    1.247396   0.056622  -0.197948
		H   -1.193898  -0.744598  -0.944876
		H   -0.025269   1.280483   1.018442
		H    1.446762  -0.552257  -0.954041
		H    1.844373   0.622000  -0.022352
*
