! B3LYP 6-31G
!TightSCF
%scf
 ConvForced true
 convergence tight
 MaxIter 500
end
 
%tddft 
 nroots 1
end

# 	21472
* xyz 0 1
		C   -0.605057  -0.469668  -0.048736
		O   -0.581505  -1.592939   0.028932
		C    0.643907   0.400046   0.020020
		C    1.863115  -0.124617   0.001412
		H   -1.697002   0.069883  -0.009846
		H    0.506337   1.403625   0.055367
		H    2.009328  -1.202155  -0.260268
		H    2.698019   0.572139   0.092786
*
