! B3LYP 6-31G
!TightSCF
%scf
 ConvForced true
 convergence tight
 MaxIter 500
end
 
%tddft 
 nroots 1
end

# 	492
* xyz 0 1
		C   -1.235753  -0.423792  -0.022912
		O   -1.813432  -0.953176  -0.952421
		C    0.002860   0.406758  -0.285582
		C    1.156566   0.033058   0.215705
		H   -1.641948  -0.396679   1.058611
		H    0.084232   1.299806  -1.045426
		H    1.381665  -0.661825   0.789955
		H    2.007305   0.640174   0.108509
*
