! B3LYP 6-31G
!TightSCF
%scf
 ConvForced true
 convergence tight
 MaxIter 500
end
 
%tddft 
 nroots 1
end

# 	23667
* xyz 0 1
		C   -0.589783  -0.401299  -0.014898
		O   -0.546422  -1.644310   0.015217
		C    0.569625   0.441155   0.014051
		C    1.858429  -0.169167   0.010027
		H   -1.495808   0.233895  -0.104183
		H    0.388699   1.479340  -0.014825
		H    1.987727  -1.189685  -0.263544
		H    2.811894   0.400296   0.038713
*
