! B3LYP 6-31G
!TightSCF
%scf
 ConvForced true
 convergence tight
 MaxIter 500
end
 
%tddft 
 nroots 1
end

# 	19417
* xyz 0 1
		C   -1.192661  -0.418605  -0.019438
		O   -2.145643  -0.428959  -0.732265
		C    0.010661   0.431676  -0.317045
		C    1.205403   0.036340   0.230823
		H   -1.097204  -0.895074   0.792338
		H   -0.082804   1.227705  -1.124942
		H    1.198953  -0.653247   1.104844
		H    2.084192   0.665983   0.018035
*
