! B3LYP 6-31G
!TightSCF
%scf
 ConvForced true
 convergence tight
 MaxIter 500
end
 
%tddft 
 nroots 1
end

# 	30013
* xyz 0 1
		C   -0.614253  -0.456996   0.001755
		O   -0.581852  -1.618463  -0.009013
		C    0.616893   0.447397   0.009621
		C    1.891280  -0.163523   0.023916
		H   -1.467445   0.140282  -0.032437
		H    0.296305   1.397676  -0.010254
		H    2.111190  -1.222524   0.066737
		H    2.669737   0.709309  -0.319758
*
