! B3LYP 6-31G
!TightSCF
%scf
 ConvForced true
 convergence tight
 MaxIter 500
end
 
%tddft 
 nroots 1
end

# 	32009
* xyz 0 1
		C   -0.474525  -0.468158  -0.033689
		O   -0.635722  -1.649725   0.017868
		C    0.628283   0.431609   0.026213
		C    1.810546  -0.094615  -0.020868
		H   -1.648995   0.162639   0.010580
		H    0.562475   1.496680  -0.013687
		H    1.914621  -1.169210  -0.079677
		H    2.854420   0.492905   0.145582
*
