! B3LYP 6-31G
!TightSCF
%scf
 ConvForced true
 convergence tight
 MaxIter 500
end
 
%tddft 
 nroots 1
end

# 	14610
* xyz 0 1
		C   -1.224794  -0.318607  -0.095768
		O   -1.604491  -1.077186  -0.832699
		C    0.012600   0.437484  -0.280653
		C    1.218442   0.086121   0.188562
		H   -1.614432  -0.276175   0.902799
		H   -0.183513   1.517931  -0.576655
		H    1.240898  -1.028385   0.645101
		H    2.137008   0.649318   0.086612
*
