! B3LYP 6-31G
!TightSCF
%scf
 ConvForced true
 convergence tight
 MaxIter 500
end
 
%tddft 
 nroots 1
end

# 	2604
* xyz 0 1
		C   -1.223363  -0.277635   0.030025
		O   -1.349980  -1.491077   0.410895
		C   -0.013248   0.460638   0.132420
		C    1.180278   0.053882  -0.051803
		H   -1.966384   0.157868  -0.618743
		H   -0.146700   1.613424   0.358004
		H    1.325210  -1.156248  -0.275179
		H    2.222024   0.617743   0.055814
*
