! B3LYP 6-31G
!TightSCF
%scf
 ConvForced true
 convergence tight
 MaxIter 500
end
 
%tddft 
 nroots 1
end

# 	16027
* xyz 0 1
		C   -1.144008  -0.317549  -0.028551
		O   -1.367397  -1.399440   0.451047
		C   -0.026254   0.531856   0.108891
		C    1.239630  -0.036798  -0.132672
		H   -2.095265   0.078304  -0.462231
		H   -0.027433   1.747075   0.209053
		H    1.353598  -1.184913  -0.234547
		H    2.103739   0.592435  -0.029054
*
