! B3LYP 6-31G
!TightSCF
%scf
 ConvForced true
 convergence tight
 MaxIter 500
end
 
%tddft 
 nroots 1
end

# 	6404
* xyz 0 1
		C   -1.210631  -0.339171  -0.027978
		O   -1.501477  -1.317523   0.646259
		C    0.011263   0.470045   0.203465
		C    1.216719   0.093796  -0.134111
		H   -1.977535  -0.045353  -0.755708
		H    0.032429   1.368086   0.644384
		H    1.227006  -0.916014  -0.470421
		H    2.153983   0.746916  -0.048986
*
