! B3LYP 6-31G
!TightSCF
%scf
 ConvForced true
 convergence tight
 MaxIter 500
end
 
%tddft 
 nroots 1
end

# 	5354
* xyz 0 1
		C   -1.210992  -0.376809  -0.051430
		O   -1.847538  -1.076607  -0.922879
		C    0.129549   0.336124  -0.271314
		C    1.169546   0.147604   0.134923
		H   -1.728033  -0.327748   1.228689
		H    0.051910   1.005321  -1.041882
		H    1.263017  -0.596052   0.899091
		H    2.122276   0.779471   0.023893
*
