! B3LYP 6-31G
!TightSCF
%scf
 ConvForced true
 convergence tight
 MaxIter 500
end
 
%tddft 
 nroots 1
end

# 	11621
* xyz 0 1
		C   -1.217457  -0.321851  -0.047764
		O   -1.256990  -1.531194   0.172697
		C    0.037428   0.526682   0.118917
		C    1.222108  -0.013234  -0.030094
		H   -2.040439   0.130966  -0.316044
		H   -0.152424   1.560260   0.134730
		H    1.388154  -1.136524  -0.296705
		H    2.033109   0.775157   0.336391
*
