! B3LYP 6-31G
!TightSCF
%scf
 ConvForced true
 convergence tight
 MaxIter 500
end
 
%tddft 
 nroots 1
end

# 	10854
* xyz 0 1
		C   -1.165983  -0.344048   0.036418
		O   -1.735272  -1.042788   0.951356
		C    0.014373   0.459264   0.224694
		C    1.202222   0.103075  -0.234426
		H   -1.621031  -0.273798  -0.997750
		H    0.045007   1.379484   0.826929
		H    1.335960  -1.010709  -0.741167
		H    1.847506   0.740418  -0.046623
*
