! B3LYP 6-31G
!TightSCF
%scf
 ConvForced true
 convergence tight
 MaxIter 500
end
 
%tddft 
 nroots 1
end

# 	10199
* xyz 0 1
		C   -1.198500  -0.309690  -0.107292
		O   -2.225377  -0.315836  -0.679366
		C    0.026239   0.384477  -0.393270
		C    1.041346   0.257610   0.317070
		H   -0.933360  -1.048267   0.901042
		H   -0.025313   0.816732  -1.287944
		H    1.039841  -0.442207   1.281198
		H    2.282707   0.644228  -0.086916
*
