! B3LYP 6-31G
!TightSCF
%scf
 ConvForced true
 convergence tight
 MaxIter 500
end
 
%tddft 
 nroots 1
end

# 	16799
* xyz 0 1
		C   -1.134446  -0.298438  -0.040649
		O   -2.134302  -0.340152  -0.882262
		C    0.100695   0.419278  -0.408958
		C    1.167881   0.234908   0.378869
		H   -1.257387  -1.128275   0.883764
		H    0.102548   0.949199  -1.222975
		H    1.099480  -0.431099   1.206699
		H    2.079943   0.606879   0.062380
*
