! B3LYP 6-31G
!TightSCF
%scf
 ConvForced true
 convergence tight
 MaxIter 500
end
 
%tddft 
 nroots 1
end

# 	32157
* xyz 0 1
		C   -0.576211  -0.464962  -0.005679
		O   -0.595700  -1.669880   0.008263
		C    0.645835   0.461211   0.042253
		C    1.845785  -0.098256  -0.025235
		H   -1.455794   0.292358  -0.222734
		H    0.464901   1.457317  -0.020180
		H    1.802624  -1.333332  -0.003351
		H    2.798325   0.548397  -0.018336
*
