! B3LYP 6-31G
!TightSCF
%scf
 ConvForced true
 convergence tight
 MaxIter 500
end
 
%tddft 
 nroots 1
end

# 	14375
* xyz 0 1
		C   -1.180086  -0.380316   0.095319
		O   -1.903521  -0.782419   0.926907
		C    0.030410   0.378133   0.282710
		C    1.155997   0.067089  -0.257289
		H   -1.381796  -0.454108  -1.008783
		H   -0.165457   1.021135   0.900507
		H    1.319402  -0.586459  -0.971246
		H    2.090668   0.641930  -0.012926
*
