! B3LYP 6-31G
!TightSCF
%scf
 ConvForced true
 convergence tight
 MaxIter 500
end
 
%tddft 
 nroots 1
end

# 	31791
* xyz 0 1
		C   -0.561262  -0.397991   0.046086
		O   -0.568631  -1.657794  -0.021265
		C    0.595026   0.395492  -0.015948
		C    1.828375  -0.119270   0.011366
		H   -1.538343   0.264484  -0.100389
		H    0.542090   1.483789  -0.029546
		H    1.848688  -1.164768   0.096817
		H    2.934716   0.441992  -0.132777
*
