! B3LYP 6-31G
!TightSCF
%scf
 ConvForced true
 convergence tight
 MaxIter 500
end
 
%tddft 
 nroots 1
end

# 	23424
* xyz 0 1
		C   -0.603121  -0.436982   0.026317
		O   -0.547118  -1.630308  -0.027691
		C    0.645003   0.441417  -0.036567
		C    1.818474  -0.148660   0.016557
		H   -1.588485   0.162959   0.252783
		H    0.530086   1.583534  -0.056791
		H    1.901590  -1.308818   0.254578
		H    2.651668   0.423137  -0.102053
*
