! B3LYP 6-31G
!TightSCF
%scf
 ConvForced true
 convergence tight
 MaxIter 500
end
 
%tddft 
 nroots 1
end

# 	29492
* xyz 0 1
		C   -0.585551  -0.430446   0.004038
		O   -0.537605  -1.599175   0.000959
		C    0.577288   0.431412   0.017529
		C    1.833465  -0.179423  -0.003883
		H   -1.354283   0.064566  -0.138078
		H    0.498647   1.632215  -0.005144
		H    1.841628  -1.326118  -0.009886
		H    2.759707   0.388485  -0.074890
*
