! B3LYP 6-31G
!TightSCF
%scf
 ConvForced true
 convergence tight
 MaxIter 500
end
 
%tddft 
 nroots 1
end

# 	5752
* xyz 0 1
		C   -1.171454  -0.303429  -0.003966
		O   -1.961924  -0.600845  -0.930626
		C    0.055675   0.493705  -0.250716
		C    1.205672   0.043332   0.255550
		H   -1.349187  -0.693717   1.075631
		H   -0.092880   1.348442  -1.065718
		H    1.200747  -0.761621   0.788737
		H    2.092641   0.567135   0.088070
*
