! B3LYP 6-31G
!TightSCF
%scf
 ConvForced true
 convergence tight
 MaxIter 500
end
 
%tddft 
 nroots 1
end

# 	22919
* xyz 0 1
		C   -0.570785  -0.465346  -0.048767
		O   -0.586154  -1.587903   0.027998
		C    0.634272   0.414407   0.066849
		C    1.847353  -0.136180  -0.032673
		H   -1.587266   0.082341  -0.200377
		H    0.435787   1.369117   0.019449
		H    2.030789  -1.197407  -0.084698
		H    2.592812   0.430723   0.000824
*
