! B3LYP 6-31G
!TightSCF
%scf
 ConvForced true
 convergence tight
 MaxIter 500
end
 
%tddft 
 nroots 1
end

# 	19854
* xyz 0 1
		C   -1.186374  -0.328896  -0.036303
		O   -1.909212  -0.683242  -0.904512
		C    0.068682   0.506111  -0.252090
		C    1.213768   0.106524   0.309682
		H   -1.457579  -0.747140   1.004672
		H   -0.024408   1.297765  -0.932791
		H    1.231860  -0.821717   0.881629
		H    2.105065   0.614878  -0.066397
*
