! B3LYP 6-31G
!TightSCF
%scf
 ConvForced true
 convergence tight
 MaxIter 500
end
 
%tddft 
 nroots 1
end

# 	12368
* xyz 0 1
		C   -1.132925  -0.341500  -0.017957
		O   -1.767063  -0.953146  -0.893158
		C    0.029427   0.498958  -0.189243
		C    1.163839   0.077192   0.163569
		H   -1.617717  -0.462794   0.916458
		H   -0.172975   1.547838  -0.683530
		H    1.377992  -0.973977   0.604179
		H    2.107732   0.641729   0.096113
*
