! B3LYP 6-31G
!TightSCF
%scf
 ConvForced true
 convergence tight
 MaxIter 500
end
 
%tddft 
 nroots 1
end

# 	8286
* xyz 0 1
		C   -1.163992  -0.377912  -0.054364
		O   -1.369906  -1.543038   0.342211
		C    0.102872   0.427281   0.151337
		C    1.315841   0.054347  -0.101796
		H   -2.117257   0.297247  -0.398912
		H   -0.254792   1.476925   0.113471
		H    1.489763  -0.960924  -0.168217
		H    2.012818   0.603180   0.077949
*
