! B3LYP 6-31G
!TightSCF
%scf
 ConvForced true
 convergence tight
 MaxIter 500
end
 
%tddft 
 nroots 1
end

# 	13446
* xyz 0 1
		C   -1.217293  -0.307294  -0.047042
		O   -1.548912  -1.249923  -0.750256
		C    0.035235   0.445695  -0.240789
		C    1.195728   0.027802   0.110208
		H   -1.875126  -0.048498   1.006678
		H   -0.022807   1.427373  -0.710169
		H    1.368693  -0.784064   0.618998
		H    2.073574   0.530933   0.007634
*
