! B3LYP 6-31G
!TightSCF
%scf
 ConvForced true
 convergence tight
 MaxIter 500
end
 
%tddft 
 nroots 1
end

# 	5394
* xyz 0 1
		C   -1.209080  -0.309328  -0.024385
		O   -2.007042  -0.691337   0.764720
		C   -0.082326   0.490803   0.323780
		C    1.215320   0.022742  -0.161258
		H   -1.204452  -0.701791  -1.040209
		H   -0.064655   1.405099   0.974026
		H    1.333243  -0.810092  -0.812237
		H    1.991303   0.584529  -0.027639
*
