! B3LYP 6-31G
!TightSCF
%scf
 ConvForced true
 convergence tight
 MaxIter 500
end
 
%tddft 
 nroots 1
end

# 	24840
* xyz 0 1
		C   -0.602569  -0.473232  -0.021067
		O   -0.593063  -1.646852  -0.010448
		C    0.609078   0.437049   0.021699
		C    1.869472  -0.095876   0.001565
		H   -1.617521   0.129482   0.244732
		H    0.693553   1.538233  -0.177118
		H    2.085395  -1.188241   0.169176
		H    2.883360   0.482878  -0.117078
*
