! B3LYP 6-31G
!TightSCF
%scf
 ConvForced true
 convergence tight
 MaxIter 500
end
 
%tddft 
 nroots 1
end

# 	32526
* xyz 0 1
		C   -0.553668  -0.423045   0.006073
		O   -0.561477  -1.613405  -0.012886
		C    0.643948   0.429472  -0.054076
		C    1.782311  -0.171860   0.055920
		H   -1.557968  -0.021287   0.199655
		H    0.631170   1.478278   0.136217
		H    1.765223  -1.187566   0.051294
		H    2.748664   0.529719  -0.290698
*
