! B3LYP 6-31G
!TightSCF
%scf
 ConvForced true
 convergence tight
 MaxIter 500
end
 
%tddft 
 nroots 1
end

# 	12334
* xyz 0 1
		C   -1.198092  -0.243628  -0.040063
		O   -1.990185  -0.571333  -1.015733
		C    0.069095   0.418845  -0.309276
		C    1.192534   0.078077   0.156484
		H   -1.374323  -0.613020   1.041559
		H   -0.055040   1.059080  -0.918845
		H    1.161536  -0.827635   0.936051
		H    2.183804   0.678209   0.182708
*
