! B3LYP 6-31G
!TightSCF
%scf
 ConvForced true
 convergence tight
 MaxIter 500
end
 
%tddft 
 nroots 1
end

# 	22515
* xyz 0 1
		C   -0.620172  -0.472433  -0.084056
		O   -0.587610  -1.643715   0.055211
		C    0.639376   0.427005   0.053635
		C    1.879329  -0.116879  -0.052839
		H   -1.604439   0.195478  -0.281197
		H    0.497488   1.641097   0.410663
		H    2.047488  -1.200473  -0.029860
		H    2.752196   0.659403   0.041821
*
