! B3LYP 6-31G
!TightSCF
%scf
 ConvForced true
 convergence tight
 MaxIter 500
end
 
%tddft 
 nroots 1
end

# 	23967
* xyz 0 1
		C   -0.627607  -0.404031   0.028632
		O   -0.557697  -1.621487  -0.015860
		C    0.601676   0.364282  -0.077432
		C    1.894346  -0.111477  -0.019783
		H   -1.567286   0.305227   0.317044
		H    0.364549   1.253374   0.144233
		H    1.967701  -1.276461   0.299431
		H    2.718232   0.533303   0.322340
*
