! B3LYP 6-31G
!TightSCF
%scf
 ConvForced true
 convergence tight
 MaxIter 500
end
 
%tddft 
 nroots 1
end

# 	16530
* xyz 0 1
		C   -1.219902  -0.291350   0.025529
		O   -1.543738  -1.138036   0.905261
		C    0.048852   0.471936   0.136138
		C    1.186569  -0.027870  -0.144267
		H   -1.862998  -0.139229  -0.967643
		H    0.008482   1.499371   0.672778
		H    1.352328  -1.054771  -0.561038
		H    2.091387   0.685724  -0.083507
*
