! B3LYP 6-31G
!TightSCF
%scf
 ConvForced true
 convergence tight
 MaxIter 500
end
 
%tddft 
 nroots 1
end

# 	29412
* xyz 0 1
		C   -0.592151  -0.406968   0.030520
		O   -0.536366  -1.639151  -0.017659
		C    0.618008   0.456119  -0.065625
		C    1.836056  -0.166665   0.038701
		H   -1.797073   0.075678   0.245434
		H    0.462400   1.465821  -0.024091
		H    1.819803  -1.263632  -0.054193
		H    2.782669   0.386680   0.069703
*
