! B3LYP 6-31G
!TightSCF
%scf
 ConvForced true
 convergence tight
 MaxIter 500
end
 
%tddft 
 nroots 1
end

# 	18069
* xyz 0 1
		C   -1.181812  -0.285628   0.032474
		O   -1.646917  -1.038603  -0.802413
		C    0.018719   0.515774  -0.246287
		C    1.202858  -0.006717   0.072002
		H   -1.745738  -0.178891   1.050074
		H   -0.065198   1.388866  -0.894121
		H    1.237754  -1.000932   0.750705
		H    2.119895   0.566834  -0.002088
*
