! B3LYP 6-31G
!TightSCF
%scf
 ConvForced true
 convergence tight
 MaxIter 500
end
 
%tddft 
 nroots 1
end

# 	7988
* xyz 0 1
		C   -1.140639  -0.245620   0.029036
		O   -1.617754  -0.926085   0.893090
		C    0.026077   0.548915   0.191166
		C    1.222387   0.047998  -0.192228
		H   -1.766420  -0.382055  -0.973674
		H   -0.128539   1.400375   0.808303
		H    1.308193  -0.934546  -0.722254
		H    2.137103   0.521548  -0.029221
*
