! B3LYP 6-31G
!TightSCF
%scf
 ConvForced true
 convergence tight
 MaxIter 500
end
 
%tddft 
 nroots 1
end

# 	32503
* xyz 0 1
		C   -0.630951  -0.457181   0.090616
		O   -0.520166  -1.558908  -0.057547
		C    0.617984   0.410379  -0.036410
		C    1.816006  -0.182983   0.031163
		H   -1.418382   0.003094   0.077449
		H    0.510537   1.646582  -0.248373
		H    1.854918  -1.292835   0.290440
		H    2.777081   0.373756  -0.254265
*
