! B3LYP 6-31G
!TightSCF
%scf
 ConvForced true
 convergence tight
 MaxIter 500
end
 
%tddft 
 nroots 1
end

# 	19289
* xyz 0 1
		C   -1.172273  -0.371327  -0.087516
		O   -1.563680  -1.362077  -0.701407
		C   -0.019296   0.505650  -0.275778
		C    1.210128   0.099695   0.112320
		H   -1.797417  -0.072803   0.947797
		H   -0.093027   1.594800  -0.340909
		H    1.304850  -1.031071   0.283183
		H    2.153231   0.671373   0.046824
*
