! B3LYP 6-31G
!TightSCF
%scf
 ConvForced true
 convergence tight
 MaxIter 500
end
 
%tddft 
 nroots 1
end

# 	11323
* xyz 0 1
		C   -1.227453  -0.367091  -0.049640
		O   -1.389387  -1.543238   0.427633
		C   -0.022291   0.428377   0.164408
		C    1.221433   0.050102  -0.069344
		H   -1.992948   0.267777  -0.580367
		H   -0.103815   1.517184   0.382661
		H    1.399511  -1.002733  -0.357324
		H    2.123764   0.652305   0.091992
*
