! B3LYP 6-31G
!TightSCF
%scf
 ConvForced true
 convergence tight
 MaxIter 500
end
 
%tddft 
 nroots 1
end

# 	16633
* xyz 0 1
		C   -1.161210  -0.350873  -0.083972
		O   -1.827990  -0.961011  -0.926557
		C    0.004188   0.467243  -0.197457
		C    1.196648   0.009933   0.195374
		H   -1.606871  -0.495600   1.126436
		H   -0.011775   1.313114  -0.877878
		H    1.470506  -0.674108   0.752281
		H    1.948298   0.650400   0.002973
*
