! B3LYP 6-31G
!TightSCF
%scf
 ConvForced true
 convergence tight
 MaxIter 500
end
 
%tddft 
 nroots 1
end

# 	10150
* xyz 0 1
		C   -1.205965  -0.430169  -0.057931
		O   -1.865145  -1.051367   0.706590
		C   -0.042576   0.408635   0.263380
		C    1.213207   0.036528  -0.162538
		H   -1.390572  -0.477473  -1.142018
		H   -0.137444   1.442750   1.010745
		H    1.330188  -0.757138  -0.719218
		H    2.082958   0.817204   0.073781
*
