! B3LYP 6-31G
!TightSCF
%scf
 ConvForced true
 convergence tight
 MaxIter 500
end
 
%tddft 
 nroots 1
end

# 	22423
* xyz 0 1
		C   -0.596594  -0.431029  -0.023611
		O   -0.567638  -1.647123  -0.003741
		C    0.644758   0.425918   0.063403
		C    1.845902  -0.114268   0.001934
		H   -1.575786   0.169348  -0.113918
		H    0.380594   1.557638  -0.074873
		H    1.856492  -1.367514   0.178245
		H    2.742626   0.466341  -0.455738
*
