! B3LYP 6-31G
!TightSCF
%scf
 ConvForced true
 convergence tight
 MaxIter 500
end
 
%tddft 
 nroots 1
end

# 	8915
* xyz 0 1
		C   -1.236072  -0.344994   0.067254
		O   -2.159598  -0.351216   0.822714
		C   -0.038450   0.478458   0.309924
		C    1.180954   0.075772  -0.301811
		H   -1.204496  -0.928148  -0.863083
		H    0.060437   1.274747   1.150377
		H    1.210723  -0.726198  -1.031090
		H    2.143710   0.557395  -0.107281
*
