! B3LYP 6-31G
!TightSCF
%scf
 ConvForced true
 convergence tight
 MaxIter 500
end
 
%tddft 
 nroots 1
end

# 	17774
* xyz 0 1
		C   -1.178380  -0.282677   0.078564
		O   -1.712308  -0.782496   1.032529
		C    0.053207   0.489407   0.205650
		C    1.245540   0.057576  -0.186354
		H   -1.785935  -0.260593  -1.142857
		H   -0.115311   1.279362   0.802353
		H    1.289989  -1.002230  -0.601871
		H    2.205594   0.527311  -0.183272
*
