! B3LYP 6-31G
!TightSCF
%scf
 ConvForced true
 convergence tight
 MaxIter 500
end
 
%tddft 
 nroots 1
end

# 	10587
* xyz 0 1
		C   -1.212197  -0.372176   0.012533
		O   -1.394870  -1.502632   0.467514
		C    0.021273   0.511760   0.179431
		C    1.204197   0.045008  -0.155141
		H   -1.922596   0.069662  -0.677354
		H   -0.087872   1.592135   0.496445
		H    1.418331  -1.009477  -0.364635
		H    1.979048   0.678846   0.052877
*
