! B3LYP 6-31G
!TightSCF
%scf
 ConvForced true
 convergence tight
 MaxIter 500
end
 
%tddft 
 nroots 1
end

# 	12403
* xyz 0 1
		C   -1.238432  -0.342198  -0.063668
		O   -1.281272  -1.509868  -0.196320
		C    0.017559   0.510312  -0.064421
		C    1.262793  -0.004704   0.039999
		H   -2.140342   0.290634   0.210218
		H   -0.260959   1.481597  -0.096051
		H    1.499116  -1.003454   0.140797
		H    2.145167   0.652615   0.048987
*
