! B3LYP 6-31G
!TightSCF
%scf
 ConvForced true
 convergence tight
 MaxIter 500
end
 
%tddft 
 nroots 1
end

# 	26956
* xyz 0 1
		C   -0.579816  -0.401666   0.036412
		O   -0.548869  -1.659455  -0.025552
		C    0.618953   0.476202  -0.032435
		C    1.801664  -0.163286  -0.004194
		H   -1.469990   0.003158   0.210733
		H    0.506644   1.500934  -0.128826
		H    1.771924  -1.347799   0.191861
		H    2.947325   0.469788   0.129406
*
