! B3LYP 6-31G
!TightSCF
%scf
 ConvForced true
 convergence tight
 MaxIter 500
end
 
%tddft 
 nroots 1
end

# 	8123
* xyz 0 1
		C   -1.237079  -0.349041   0.037534
		O   -1.304367  -1.412629   0.488070
		C    0.027198   0.534000   0.122485
		C    1.221636   0.059810  -0.069557
		H   -2.039493   0.127923  -0.581756
		H   -0.125127   1.617702   0.292226
		H    1.270936  -1.113079  -0.218564
		H    2.145666   0.520076  -0.104813
*
