! B3LYP 6-31G
!TightSCF
%scf
 ConvForced true
 convergence tight
 MaxIter 500
end
 
%tddft 
 nroots 1
end

# 	898
* xyz 0 1
		C   -1.213869  -0.352638  -0.008176
		O   -2.149419  -0.493128   0.806154
		C    0.040103   0.279315   0.349719
		C    1.136670   0.189036  -0.371568
		H   -1.053689  -0.983775  -0.929731
		H   -0.015110   1.114970   1.202062
		H    1.176997  -0.559943  -1.003122
		H    2.089123   0.785046  -0.077566
*
