! B3LYP 6-31G
!TightSCF
%scf
 ConvForced true
 convergence tight
 MaxIter 500
end
 
%tddft 
 nroots 1
end

# 	11098
* xyz 0 1
		C   -1.232472  -0.384176   0.052384
		O   -2.142003  -0.421450   0.759377
		C    0.030254   0.410959   0.313452
		C    1.125389   0.105926  -0.284440
		H   -1.184928  -1.006265  -0.927898
		H    0.021097   1.376344   1.107171
		H    1.368387  -0.618905  -0.917993
		H    2.016045   0.608754  -0.098783
*
