! B3LYP 6-31G
!TightSCF
%scf
 ConvForced true
 convergence tight
 MaxIter 500
end
 
%tddft 
 nroots 1
end

# 	31419
* xyz 0 1
		C   -0.581727  -0.401749   0.015173
		O   -0.509809  -1.621617  -0.010918
		C    0.580063   0.428758   0.011073
		C    1.828618  -0.194224   0.005932
		H   -1.562723   0.231980  -0.097726
		H    0.522396   1.679193  -0.017123
		H    1.627863  -1.360041   0.108279
		H    2.700300   0.438377  -0.216250
*
