! B3LYP 6-31G
!TightSCF
%scf
 ConvForced true
 convergence tight
 MaxIter 500
end
 
%tddft 
 nroots 1
end

# 	14972
* xyz 0 1
		C   -1.262644  -0.270048  -0.098994
		O   -1.613016  -1.053897  -0.933643
		C   -0.013078   0.530792  -0.200784
		C    1.216906   0.011645   0.244963
		H   -1.578151  -0.263835   0.951100
		H    0.039478   1.445279  -0.836280
		H    1.193886  -0.984254   0.648474
		H    1.958736   0.561495   0.121718
*
