! B3LYP 6-31G
!TightSCF
%scf
 ConvForced true
 convergence tight
 MaxIter 500
end
 
%tddft 
 nroots 1
end

# 	5186
* xyz 0 1
		C   -1.187578  -0.291123   0.076673
		O   -1.288410  -1.411115   0.541371
		C    0.005332   0.497074   0.122346
		C    1.200322   0.010414  -0.155746
		H   -2.063965   0.117622  -0.433004
		H   -0.153869   1.698188   0.086409
		H    1.269726  -1.155491  -0.147985
		H    2.244701   0.503342  -0.119655
*
