! B3LYP 6-31G
!TightSCF
%scf
 ConvForced true
 convergence tight
 MaxIter 500
end
 
%tddft 
 nroots 1
end

# 	16110
* xyz 0 1
		C   -1.160935  -0.373694  -0.031539
		O   -1.529380  -1.337102   0.628365
		C    0.010446   0.459089   0.153403
		C    1.237338   0.014452  -0.199482
		H   -1.814186   0.051614  -0.780297
		H   -0.228373   1.379664   0.473974
		H    1.553527  -0.890071  -0.371151
		H    1.987098   0.684247   0.111394
*
