! B3LYP 6-31G
!TightSCF
%scf
 ConvForced true
 convergence tight
 MaxIter 500
end
 
%tddft 
 nroots 1
end

# 	31188
* xyz 0 1
		C   -0.569819  -0.447411   0.027308
		O   -0.569945  -1.662779   0.000816
		C    0.597298   0.483118  -0.019261
		C    1.867095  -0.136812   0.005813
		H   -1.629479   0.151646  -0.162263
		H    0.451587   1.631062   0.055642
		H    1.837589  -1.378412  -0.146129
		H    2.790328   0.440939   0.085999
*
