! B3LYP 6-31G
!TightSCF
%scf
 ConvForced true
 convergence tight
 MaxIter 500
end
 
%tddft 
 nroots 1
end

# 	14866
* xyz 0 1
		C   -1.194120  -0.335337   0.010939
		O   -1.471786  -1.200848  -0.707053
		C    0.030404   0.531430  -0.098223
		C    1.261412   0.090720   0.195687
		H   -1.861854  -0.067119   0.822131
		H   -0.110142   1.431481  -0.821830
		H    1.156792  -0.967985   0.588949
		H    2.219332   0.543851   0.031581
*
