! B3LYP 6-31G
!TightSCF
%scf
 ConvForced true
 convergence tight
 MaxIter 500
end
 
%tddft 
 nroots 1
end

# 	21072
* xyz 0 1
		C   -0.568949  -0.388071  -0.020577
		O   -0.635171  -1.699415   0.009616
		C    0.638631   0.362132   0.042251
		C    1.879110  -0.052256   0.011517
		H   -1.453503   0.219719  -0.156241
		H    0.409387   1.356696  -0.056358
		H    2.037222  -1.042631  -0.141305
		H    2.816426   0.633213  -0.202931
*
