! B3LYP 6-31G
!TightSCF
%scf
 ConvForced true
 convergence tight
 MaxIter 500
end
 
%tddft 
 nroots 1
end

# 	3532
* xyz 0 1
		C   -1.224353  -0.355403   0.012940
		O   -1.660288  -1.036804  -0.855276
		C    0.048019   0.535533  -0.185463
		C    1.206725   0.087296   0.205837
		H   -1.715152  -0.265565   0.957972
		H   -0.275131   1.265560  -0.768710
		H    1.337789  -0.899452   0.492806
		H    2.289828   0.635169   0.075132
*
