! B3LYP 6-31G
!TightSCF
%scf
 ConvForced true
 convergence tight
 MaxIter 500
end
 
%tddft 
 nroots 1
end

# 	652
* xyz 0 1
		C   -1.193142  -0.387001   0.073049
		O   -1.900498  -0.704030   0.994106
		C    0.047041   0.467610   0.178525
		C    1.210014   0.041025  -0.260022
		H   -1.463940  -0.700899  -0.944656
		H   -0.032737   1.410790   0.713212
		H    1.257747  -0.846542  -0.713771
		H    2.116070   0.712472  -0.061032
*
