! B3LYP 6-31G
!TightSCF
%scf
 ConvForced true
 convergence tight
 MaxIter 500
end
 
%tddft 
 nroots 1
end

# 	19278
* xyz 0 1
		C   -1.206464  -0.326345   0.087588
		O   -2.079693  -0.466764   0.876624
		C    0.039958   0.413057   0.450271
		C    1.165159   0.073514  -0.313453
		H   -1.222733  -0.842063  -0.868285
		H   -0.121048   1.086458   1.112627
		H    1.091250  -0.567598  -1.132183
		H    2.274069   0.632080  -0.190915
*
