! B3LYP 6-31G
!TightSCF
%scf
 ConvForced true
 convergence tight
 MaxIter 500
end
 
%tddft 
 nroots 1
end

# 	17092
* xyz 0 1
		C   -1.197858  -0.385115  -0.026303
		O   -1.762195  -1.082455   0.816707
		C    0.076102   0.440270   0.215662
		C    1.192301   0.189325  -0.196197
		H   -1.481367  -0.287561  -1.018467
		H   -0.137135   1.233561   0.827731
		H    1.227722  -0.625363  -0.782756
		H    2.045720   0.583833   0.152376
*
