! B3LYP 6-31G
!TightSCF
%scf
 ConvForced true
 convergence tight
 MaxIter 500
end
 
%tddft 
 nroots 1
end

# 	19107
* xyz 0 1
		C   -1.211801  -0.297474  -0.071657
		O   -1.432087  -1.325502  -0.657208
		C   -0.013985   0.537788  -0.222607
		C    1.188725   0.029447   0.173456
		H   -1.859142   0.145709   0.814933
		H   -0.168951   1.448448  -0.651649
		H    1.272994  -1.090432   0.506765
		H    2.173692   0.518884   0.072038
*
