! B3LYP 6-31G
!TightSCF
%scf
 ConvForced true
 convergence tight
 MaxIter 500
end
 
%tddft 
 nroots 1
end

# 	10823
* xyz 0 1
		C   -1.141568  -0.297851   0.025228
		O   -1.184928  -1.441467   0.186981
		C    0.054323   0.534667   0.046369
		C    1.243772  -0.051906  -0.008786
		H   -2.241768   0.274548  -0.095963
		H   -0.174221   1.575663  -0.032133
		H    1.282360  -1.146680  -0.125400
		H    2.149936   0.576218  -0.012409
*
