! B3LYP 6-31G
!TightSCF
%scf
 ConvForced true
 convergence tight
 MaxIter 500
end
 
%tddft 
 nroots 1
end

# 	13290
* xyz 0 1
		C   -1.192345  -0.334944   0.064884
		O   -1.844169  -0.840436   0.847210
		C    0.006203   0.443516   0.236956
		C    1.216341   0.065887  -0.096346
		H   -1.413716  -0.580557  -0.984814
		H   -0.198831   1.453702   0.749826
		H    1.341420  -0.899785  -0.835670
		H    2.073695   0.591638  -0.023570
*
