! B3LYP 6-31G
!TightSCF
%scf
 ConvForced true
 convergence tight
 MaxIter 500
end
 
%tddft 
 nroots 1
end

# 	9121
* xyz 0 1
		C   -1.225605  -0.351324   0.063644
		O   -1.155966  -1.472825  -0.060038
		C    0.039679   0.469756  -0.021608
		C    1.282885   0.035191   0.050276
		H   -2.249222   0.293782   0.005895
		H   -0.155441   1.578639  -0.146107
		H    1.212188  -1.084583   0.023102
		H    2.227930   0.582761   0.067561
*
