! B3LYP 6-31G
!TightSCF
%scf
 ConvForced true
 convergence tight
 MaxIter 500
end
 
%tddft 
 nroots 1
end

# 	19481
* xyz 0 1
		C   -1.142464  -0.351984  -0.037096
		O   -1.178940  -1.539920   0.047793
		C    0.017556   0.520697   0.038186
		C    1.230125  -0.075659  -0.056544
		H   -2.155343   0.438733  -0.091960
		H   -0.140035   1.665765   0.005142
		H    1.292541  -1.227646   0.110721
		H    2.065443   0.627542  -0.037168
*
