! B3LYP 6-31G
!TightSCF
%scf
 ConvForced true
 convergence tight
 MaxIter 500
end
 
%tddft 
 nroots 1
end

# 	5474
* xyz 0 1
		C   -1.218025  -0.387041   0.028141
		O   -2.067337  -0.542386   0.793777
		C   -0.006397   0.415133   0.274418
		C    1.228719   0.119287  -0.185955
		H   -1.325422  -0.946135  -0.878949
		H   -0.015146   1.397425   1.010381
		H    1.140678  -0.783376  -0.928855
		H    2.180825   0.674824  -0.136395
*
