! B3LYP 6-31G
!TightSCF
%scf
 ConvForced true
 convergence tight
 MaxIter 500
end
 
%tddft 
 nroots 1
end

# 	18949
* xyz 0 1
		C   -1.247586  -0.365029   0.016441
		O   -1.776266  -1.026329   0.829075
		C   -0.006709   0.446485   0.274898
		C    1.198705   0.082194  -0.157934
		H   -1.499696  -0.319804  -1.035779
		H   -0.109227   1.333334   0.737281
		H    1.408321  -0.847615  -0.679467
		H    2.070569   0.717666   0.027135
*
