! B3LYP 6-31G
!TightSCF
%scf
 ConvForced true
 convergence tight
 MaxIter 500
end
 
%tddft 
 nroots 1
end

# 	20189
* xyz 0 1
		C   -0.575810  -0.444948  -0.003502
		O   -0.571057  -1.570093  -0.008807
		C    0.610581   0.354116   0.012711
		C    1.865424  -0.139862   0.005184
		H   -1.602131   0.083879   0.136770
		H    0.476410   1.502439  -0.182459
		H    1.885288  -1.267090   0.021770
		H    2.613908   0.596574  -0.019047
*
