! B3LYP 6-31G
!TightSCF
%scf
 ConvForced true
 convergence tight
 MaxIter 500
end
 
%tddft 
 nroots 1
end

# 	5854
* xyz 0 1
		C   -1.204566  -0.365885  -0.013490
		O   -1.822414  -0.947842   0.840296
		C   -0.024065   0.400991   0.330340
		C    1.127296   0.060207  -0.148893
		H   -1.457457  -0.482619  -1.012939
		H   -0.067304   1.284750   1.051893
		H    1.309833  -0.665535  -0.989776
		H    2.175156   0.682143  -0.006736
*
