! B3LYP 6-31G
!TightSCF
%scf
 ConvForced true
 convergence tight
 MaxIter 500
end
 
%tddft 
 nroots 1
end

# 	22139
* xyz 0 1
		C   -0.605867  -0.460219   0.012843
		O   -0.561887  -1.647797  -0.006453
		C    0.630277   0.476794  -0.013904
		C    1.850969  -0.149262   0.017251
		H   -1.607649   0.134014  -0.019362
		H    0.455753   1.595360   0.034190
		H    1.841199  -1.206671   0.005607
		H    2.845703   0.459943  -0.115639
*
