! B3LYP 6-31G
!TightSCF
%scf
 ConvForced true
 convergence tight
 MaxIter 500
end
 
%tddft 
 nroots 1
end

# 	27891
* xyz 0 1
		C   -0.552620  -0.429383   0.016123
		O   -0.507979  -1.605053  -0.008040
		C    0.601659   0.512389  -0.064129
		C    1.759402  -0.254560   0.033100
		H   -1.563602  -0.000235   0.195298
		H    0.712801   1.673742   0.109605
		H    1.745098  -1.347842  -0.029691
		H    2.639986   0.432311   0.033829
*
