! B3LYP 6-31G
!TightSCF
%scf
 ConvForced true
 convergence tight
 MaxIter 500
end
 
%tddft 
 nroots 1
end

# 	4941
* xyz 0 1
		C   -1.138724  -0.229488   0.052301
		O   -1.202082  -1.517764   0.179550
		C   -0.023823   0.617021   0.064387
		C    1.263535   0.038671  -0.010010
		H   -2.115468   0.331593  -0.418401
		H   -0.230650   1.614748   0.259277
		H    1.017247  -1.162970  -0.111101
		H    2.426965   0.363232  -0.009506
*
