! B3LYP 6-31G
!TightSCF
%scf
 ConvForced true
 convergence tight
 MaxIter 500
end
 
%tddft 
 nroots 1
end

# 	3170
* xyz 0 1
		C   -1.235454  -0.258397  -0.024741
		O   -1.750868  -0.952011  -0.889704
		C    0.025978   0.501465  -0.247431
		C    1.198140   0.036424   0.128276
		H   -1.649602  -0.423938   1.056379
		H    0.060758   1.324767  -0.964631
		H    1.215253  -0.830541   0.839117
		H    2.117963   0.662330   0.074693
*
