! B3LYP 6-31G
!TightSCF
%scf
 ConvForced true
 convergence tight
 MaxIter 500
end
 
%tddft 
 nroots 1
end

# 	52
* xyz 0 1
		C   -1.226384  -0.370807  -0.015343
		O   -1.858725  -0.706573  -0.933948
		C   -0.011273   0.446414  -0.212753
		C    1.187302   0.032214   0.182645
		H   -1.356585  -0.770011   0.935113
		H   -0.047839   1.407552  -0.810014
		H    1.353646  -0.874286   0.782650
		H    2.013025   0.800748   0.002590
*
