! B3LYP 6-31G
!TightSCF
%scf
 ConvForced true
 convergence tight
 MaxIter 500
end
 
%tddft 
 nroots 1
end

# 	16199
* xyz 0 1
		C   -1.206047  -0.405458  -0.067755
		O   -2.275822  -0.223732  -0.600718
		C    0.012543   0.405290  -0.380653
		C    1.138541   0.229521   0.304186
		H   -1.159699  -1.177345   0.755440
		H    0.093209   0.954080  -1.327440
		H    1.189839  -0.429557   1.151063
		H    2.191592   0.698385   0.144047
*
