! B3LYP 6-31G
!TightSCF
%scf
 ConvForced true
 convergence tight
 MaxIter 500
end
 
%tddft 
 nroots 1
end

# 	13168
* xyz 0 1
		C   -1.195110  -0.304096   0.003291
		O   -1.676743  -1.070233   0.895017
		C   -0.017975   0.534725   0.292394
		C    1.187491   0.045054  -0.201440
		H   -1.736724  -0.336269  -1.034385
		H   -0.024675   1.345722   0.814207
		H    1.368213  -0.862083  -0.796658
		H    2.114343   0.620407   0.031118
*
