! B3LYP 6-31G
!TightSCF
%scf
 ConvForced true
 convergence tight
 MaxIter 500
end
 
%tddft 
 nroots 1
end

# 	22323
* xyz 0 1
		C   -0.582747  -0.450571  -0.004021
		O   -0.552332  -1.651392   0.010483
		C    0.610619   0.487978   0.026564
		C    1.821468  -0.163826  -0.021271
		H   -1.423323   0.221124  -0.169874
		H    0.385345   1.671009  -0.016512
		H    1.835795  -1.303878  -0.083383
		H    2.902316   0.397632   0.096591
*
