! B3LYP 6-31G
!TightSCF
%scf
 ConvForced true
 convergence tight
 MaxIter 500
end
 
%tddft 
 nroots 1
end

# 	12819
* xyz 0 1
		C   -1.150367  -0.325635  -0.035044
		O   -2.199520  -0.222069  -0.684124
		C    0.056654   0.282102  -0.503427
		C    1.268036   0.145925   0.233951
		H   -1.228132  -0.927711   0.967431
		H    0.040353   0.920894  -1.307409
		H    1.268580  -0.727828   1.045667
		H    1.934905   0.838239   0.253925
*
