! B3LYP 6-31G
!TightSCF
%scf
 ConvForced true
 convergence tight
 MaxIter 500
end
 
%tddft 
 nroots 1
end

# 	30022
* xyz 0 1
		C   -0.610928  -0.461588  -0.025649
		O   -0.534830  -1.597527   0.006263
		C    0.611095   0.474062   0.047218
		C    1.834125  -0.177598  -0.011236
		H   -1.519839   0.054878  -0.004270
		H    0.491446   1.436310  -0.162571
		H    1.781080  -1.297654  -0.042326
		H    2.814229   0.358563  -0.020497
*
