! B3LYP 6-31G
!TightSCF
%scf
 ConvForced true
 convergence tight
 MaxIter 500
end
 
%tddft 
 nroots 1
end

# 	29398
* xyz 0 1
		C   -0.668652  -0.437779  -0.011843
		O   -0.550930  -1.621864   0.017193
		C    0.647087   0.421721  -0.025314
		C    1.847449  -0.132942   0.004228
		H   -1.499625  -0.001120  -0.030278
		H    0.401899   1.554467   0.192709
		H    2.107878  -1.210751  -0.151714
		H    2.920466   0.445846   0.126748
*
