! B3LYP 6-31G
!TightSCF
%scf
 ConvForced true
 convergence tight
 MaxIter 500
end
 
%tddft 
 nroots 1
end

# 	26272
* xyz 0 1
		C   -0.603721  -0.406758   0.078890
		O   -0.555449  -1.679667  -0.044725
		C    0.637219   0.464976  -0.061840
		C    1.832539  -0.116016   0.025492
		H   -1.480114   0.161615   0.145688
		H    0.297830   1.534342  -0.120931
		H    1.823237  -1.390851   0.208298
		H    2.884254   0.304525  -0.043825
*
