! B3LYP 6-31G
!TightSCF
%scf
 ConvForced true
 convergence tight
 MaxIter 500
end
 
%tddft 
 nroots 1
end

# 	24732
* xyz 0 1
		C   -0.555252  -0.411517  -0.025901
		O   -0.582246  -1.641332   0.014205
		C    0.647730   0.414308   0.007834
		C    1.814619  -0.141475   0.016778
		H   -1.503301   0.140388  -0.074550
		H    0.479654   1.443551   0.132604
		H    1.881987  -1.135192  -0.096465
		H    2.624681   0.507769  -0.172469
*
