! B3LYP 6-31G
!TightSCF
%scf
 ConvForced true
 convergence tight
 MaxIter 500
end
 
%tddft 
 nroots 1
end

# 	1463
* xyz 0 1
		C   -1.214595  -0.403861   0.084365
		O   -1.351452  -1.516594  -0.277482
		C    0.004307   0.451365  -0.137495
		C    1.178748   0.016170   0.115594
		H   -2.053302   0.280044   0.351332
		H   -0.081476   1.501512  -0.355386
		H    1.277265  -1.065159   0.295743
		H    2.166577   0.712405  -0.075265
*
