! B3LYP 6-31G
!TightSCF
%scf
 ConvForced true
 convergence tight
 MaxIter 500
end
 
%tddft 
 nroots 1
end

# 	13161
* xyz 0 1
		C   -1.205168  -0.313422  -0.049546
		O   -1.286399  -1.581798   0.184108
		C   -0.033439   0.503524   0.111932
		C    1.183461  -0.033048  -0.017193
		H   -2.273937   0.235196  -0.368984
		H    0.008528   1.562663   0.279944
		H    1.523945  -1.061769  -0.211568
		H    2.073362   0.610428   0.003838
*
