! B3LYP 6-31G
!TightSCF
%scf
 ConvForced true
 convergence tight
 MaxIter 500
end
 
%tddft 
 nroots 1
end

# 	14340
* xyz 0 1
		C   -1.235524  -0.278539  -0.056793
		O   -1.190845  -1.520270   0.054048
		C    0.014116   0.507980   0.039391
		C    1.275200   0.000019   0.005450
		H   -2.233442   0.256416   0.086751
		H   -0.256814   1.564853  -0.080584
		H    1.500241  -1.037826  -0.124894
		H    2.123592   0.486283   0.064991
*
