! B3LYP 6-31G
!TightSCF
%scf
 ConvForced true
 convergence tight
 MaxIter 500
end
 
%tddft 
 nroots 1
end

# 	5188
* xyz 0 1
		C   -1.188228  -0.294600   0.058790
		O   -1.360865  -1.291776   0.711260
		C    0.022575   0.513954   0.156682
		C    1.197083   0.002606  -0.206492
		H   -1.970041   0.022180  -0.575772
		H   -0.165789   1.694533   0.227538
		H    1.267000  -1.154412  -0.242011
		H    2.206234   0.502519  -0.087230
*
