! B3LYP 6-31G
!TightSCF
%scf
 ConvForced true
 convergence tight
 MaxIter 500
end
 
%tddft 
 nroots 1
end

# 	28758
* xyz 0 1
		C   -0.612748  -0.415235   0.033246
		O   -0.507516  -1.578827  -0.017427
		C    0.620237   0.411914   0.002653
		C    1.796305  -0.191097   0.015475
		H   -1.707164   0.139901  -0.088605
		H    0.630349   1.343755  -0.122393
		H    1.859064  -1.271659   0.006366
		H    2.715969   0.420350  -0.143044
*
