! B3LYP 6-31G
!TightSCF
%scf
 ConvForced true
 convergence tight
 MaxIter 500
end
 
%tddft 
 nroots 1
end

# 	19205
* xyz 0 1
		C   -1.193130  -0.310460   0.037384
		O   -1.438853  -1.307974  -0.663661
		C   -0.023179   0.467390  -0.181866
		C    1.213112   0.022626   0.091833
		H   -1.945943  -0.114628   0.773107
		H   -0.077706   1.626832  -0.594828
		H    1.247152  -1.097865   0.541687
		H    2.137075   0.656505   0.034566
*
