! B3LYP 6-31G
!TightSCF
%scf
 ConvForced true
 convergence tight
 MaxIter 500
end
 
%tddft 
 nroots 1
end

# 	2639
* xyz 0 1
		C   -1.136848  -0.308212   0.114477
		O   -2.206741  -0.274224   0.721394
		C    0.054325   0.358379   0.416949
		C    1.073076   0.277440  -0.375329
		H   -1.114152  -1.001168  -0.934477
		H    0.081087   0.786963   1.323145
		H    1.207029  -0.507005  -1.181897
		H    2.009827   0.663921  -0.087316
*
