! B3LYP 6-31G
!TightSCF
%scf
 ConvForced true
 convergence tight
 MaxIter 500
end
 
%tddft 
 nroots 1
end

# 	17054
* xyz 0 1
		C   -1.180261  -0.312546  -0.007531
		O   -1.919078  -0.812798   0.861924
		C    0.000713   0.443580   0.223773
		C    1.190828  -0.017492  -0.122342
		H   -1.334807  -0.486420  -0.997243
		H   -0.077894   1.391514   0.973550
		H    1.281128  -0.893681  -0.852665
		H    2.052975   0.633217  -0.028201
*
