! B3LYP 6-31G
!TightSCF
%scf
 ConvForced true
 convergence tight
 MaxIter 500
end
 
%tddft 
 nroots 1
end

# 	21121
* xyz 0 1
		C   -0.620986  -0.436259   0.017656
		O   -0.548203  -1.621964  -0.014312
		C    0.634822   0.417718  -0.020649
		C    1.831004  -0.127800   0.041296
		H   -1.452262   0.155691   0.081904
		H    0.546110   1.465454  -0.083312
		H    1.805614  -1.348230  -0.074139
		H    2.778216   0.458173  -0.166665
*
