! B3LYP 6-31G
!TightSCF
%scf
 ConvForced true
 convergence tight
 MaxIter 500
end
 
%tddft 
 nroots 1
end

# 	22066
* xyz 0 1
		C   -0.575519  -0.458838  -0.012641
		O   -0.604783  -1.644778   0.010869
		C    0.610493   0.414239   0.030004
		C    1.871420  -0.103800  -0.009222
		H   -1.367030   0.342657  -0.193001
		H    0.418835   1.474626   0.057045
		H    2.085923  -1.154150  -0.031952
		H    2.696225   0.496889  -0.101060
*
