! B3LYP 6-31G
!TightSCF
%scf
 ConvForced true
 convergence tight
 MaxIter 500
end
 
%tddft 
 nroots 1
end

# 	17046
* xyz 0 1
		C   -1.156116  -0.296976   0.025415
		O   -1.388647  -1.353433   0.554571
		C   -0.025620   0.503258   0.149706
		C    1.144676  -0.042313  -0.120217
		H   -1.864720   0.086085  -0.783907
		H   -0.154737   1.628194   0.583572
		H    1.310670  -1.078169  -0.437494
		H    2.084278   0.535942   0.042070
*
