! B3LYP 6-31G
!TightSCF
%scf
 ConvForced true
 convergence tight
 MaxIter 500
end
 
%tddft 
 nroots 1
end

# 	8489
* xyz 0 1
		C   -1.195891  -0.292689  -0.005480
		O   -1.594249  -1.024766  -0.811684
		C    0.038286   0.496159  -0.230011
		C    1.196482  -0.024535   0.107463
		H   -1.708804  -0.165502   0.936899
		H   -0.190794   1.495340  -0.675012
		H    1.269485  -1.034703   0.647252
		H    2.118563   0.563117   0.030797
*
