! B3LYP 6-31G
!TightSCF
%scf
 ConvForced true
 convergence tight
 MaxIter 500
end
 
%tddft 
 nroots 1
end

# 	31503
* xyz 0 1
		C   -0.579653  -0.431616   0.007966
		O   -0.599961  -1.661261  -0.020537
		C    0.663531   0.433965  -0.004943
		C    1.826773  -0.119066   0.040287
		H   -1.515540  -0.117943   0.294649
		H    0.768598   1.666894  -0.349270
		H    1.960539  -1.116583  -0.115123
		H    2.582565   0.546268  -0.040521
*
