! B3LYP 6-31G
!TightSCF
%scf
 ConvForced true
 convergence tight
 MaxIter 500
end
 
%tddft 
 nroots 1
end

# 	23721
* xyz 0 1
		C   -0.567730  -0.458807   0.011205
		O   -0.603690  -1.629312  -0.021800
		C    0.624210   0.407904   0.007040
		C    1.852619  -0.127356   0.005233
		H   -1.405339   0.162985   0.221881
		H    0.518354   1.585591  -0.273483
		H    2.023709  -1.109768   0.117462
		H    2.682856   0.607882  -0.017575
*
