! B3LYP 6-31G
!TightSCF
%scf
 ConvForced true
 convergence tight
 MaxIter 500
end
 
%tddft 
 nroots 1
end

# 	7243
* xyz 0 1
		C   -1.160955  -0.252260  -0.017114
		O   -1.222839  -1.444179   0.379833
		C    0.043003   0.549083   0.132193
		C    1.228662  -0.041496  -0.096114
		H   -2.133809   0.011371  -0.523858
		H   -0.130340   1.525700   0.290128
		H    1.231735  -1.056040  -0.245207
		H    2.128176   0.638654   0.086221
*
