! B3LYP 6-31G
!TightSCF
%scf
 ConvForced true
 convergence tight
 MaxIter 500
end
 
%tddft 
 nroots 1
end

# 	32337
* xyz 0 1
		C   -0.640542  -0.456387  -0.010864
		O   -0.572096  -1.632313   0.014967
		C    0.629192   0.419950   0.003579
		C    1.890786  -0.107664  -0.029654
		H   -1.645746   0.073516  -0.077563
		H    0.517266   1.522270   0.108395
		H    1.975666  -1.195805  -0.015954
		H    2.787100   0.471076   0.205007
*
