! B3LYP 6-31G
!TightSCF
%scf
 ConvForced true
 convergence tight
 MaxIter 500
end
 
%tddft 
 nroots 1
end

# 	7962
* xyz 0 1
		C   -1.237019  -0.340939   0.033031
		O   -1.276760  -1.508328   0.244602
		C    0.015207   0.482993   0.189605
		C    1.278599  -0.056432  -0.071094
		H   -2.055367   0.254615  -0.459389
		H   -0.137556   1.550595   0.151243
		H    1.395731  -1.063517  -0.158358
		H    1.968893   0.717283   0.097555
*
