! B3LYP 6-31G
!TightSCF
%scf
 ConvForced true
 convergence tight
 MaxIter 500
end
 
%tddft 
 nroots 1
end

# 	25316
* xyz 0 1
		C   -0.600465  -0.481499   0.041432
		O   -0.596500  -1.649947  -0.020381
		C    0.612912   0.444344  -0.055592
		C    1.888245  -0.091433   0.020502
		H   -1.624767   0.103666   0.246548
		H    0.486043   1.648905  -0.170646
		H    1.991998  -1.153570  -0.095697
		H    2.925158   0.369063   0.272243
*
