! B3LYP 6-31G
!TightSCF
%scf
 ConvForced true
 convergence tight
 MaxIter 500
end
 
%tddft 
 nroots 1
end

# 	27866
* xyz 0 1
		C   -0.558556  -0.488170   0.015799
		O   -0.644322  -1.673363  -0.004320
		C    0.654271   0.455423  -0.040110
		C    1.855622  -0.067692   0.009117
		H   -1.422567   0.069439   0.076822
		H    0.678249   1.544736   0.089311
		H    2.054944  -1.108891   0.005859
		H    2.681227   0.478883   0.084602
*
