! B3LYP 6-31G
!TightSCF
%scf
 ConvForced true
 convergence tight
 MaxIter 500
end
 
%tddft 
 nroots 1
end

# 	9437
* xyz 0 1
		C   -1.179639  -0.355143  -0.143966
		O   -2.037078  -0.534363  -0.941378
		C    0.086567   0.466765  -0.315033
		C    1.192721   0.129899   0.285950
		H   -1.257808  -0.815660   0.924018
		H   -0.015334   1.308057  -1.017064
		H    1.101613  -0.946658   0.949478
		H    2.137063   0.754080   0.262346
*
