! B3LYP 6-31G
!TightSCF
%scf
 ConvForced true
 convergence tight
 MaxIter 500
end
 
%tddft 
 nroots 1
end

# 	3171
* xyz 0 1
		C   -1.224733  -0.304886  -0.051626
		O   -1.788956  -0.874219  -0.884170
		C    0.023004   0.457230  -0.277898
		C    1.215243   0.038918   0.121132
		H   -1.549257  -0.532417   1.036384
		H    0.057198   1.294561  -1.011789
		H    1.222099  -0.802391   0.895217
		H    2.098814   0.643793   0.097565
*
