! B3LYP 6-31G
!TightSCF
%scf
 ConvForced true
 convergence tight
 MaxIter 500
end
 
%tddft 
 nroots 1
end

# 	32538
* xyz 0 1
		C   -0.512744  -0.391993  -0.058815
		O   -0.633864  -1.659342   0.037414
		C    0.619248   0.359176   0.074098
		C    1.835755  -0.081559  -0.038548
		H   -1.522076  -0.008155  -0.280799
		H    0.484684   1.531970   0.093770
		H    2.126117  -1.030944  -0.122321
		H    2.803288   0.463217   0.003716
*
