! B3LYP 6-31G
!TightSCF
%scf
 ConvForced true
 convergence tight
 MaxIter 500
end
 
%tddft 
 nroots 1
end

# 	3834
* xyz 0 1
		C   -1.243093  -0.241857   0.149617
		O   -2.005871  -0.415382   0.841837
		C   -0.046285   0.540490   0.189284
		C    1.228334   0.029427  -0.207891
		H   -1.239271  -0.970492  -0.785922
		H   -0.180829   1.444085   0.791191
		H    1.195125  -0.932511  -0.956718
		H    2.287396   0.554918  -0.050029
*
