! B3LYP 6-31G
!TightSCF
%scf
 ConvForced true
 convergence tight
 MaxIter 500
end
 
%tddft 
 nroots 1
end

# 	31140
* xyz 0 1
		C   -0.645199  -0.448607  -0.075596
		O   -0.523079  -1.591426   0.030048
		C    0.593038   0.443970   0.035094
		C    1.872046  -0.169598   0.024500
		H   -1.563612   0.044995   0.051838
		H    0.362231   1.544229   0.079747
		H    1.890749  -1.461468  -0.210215
		H    2.860813   0.462072  -0.212559
*
