! B3LYP 6-31G
!TightSCF
%scf
 ConvForced true
 convergence tight
 MaxIter 500
end
 
%tddft 
 nroots 1
end

# 	30838
* xyz 0 1
		C   -0.573099  -0.444275  -0.020055
		O   -0.621621  -1.713871   0.009072
		C    0.668606   0.449192  -0.016268
		C    1.848575  -0.065893   0.028900
		H   -1.595055   0.266767   0.201485
		H    0.514239   1.512742  -0.106965
		H    1.939738  -1.146959  -0.306436
		H    2.835546   0.552253   0.162148
*
