! B3LYP 6-31G
!TightSCF
%scf
 ConvForced true
 convergence tight
 MaxIter 500
end
 
%tddft 
 nroots 1
end

# 	602
* xyz 0 1
		C   -1.177695  -0.343368  -0.080984
		O   -1.240988  -1.478451   0.240699
		C    0.079419   0.498198   0.085921
		C    1.256078   0.001203  -0.125709
		H   -2.147143   0.196682  -0.451918
		H   -0.101240   1.547094   0.492603
		H    1.347397  -1.018686  -0.197757
		H    1.988960   0.603544   0.062072
*
