! B3LYP 6-31G
!TightSCF
%scf
 ConvForced true
 convergence tight
 MaxIter 500
end
 
%tddft 
 nroots 1
end

# 	27365
* xyz 0 1
		C   -0.625718  -0.445791  -0.087442
		O   -0.523303  -1.602244   0.048018
		C    0.617674   0.414396   0.131390
		C    1.824097  -0.162928  -0.043886
		H   -1.716049   0.166370  -0.492295
		H    0.512688   1.656706   0.118920
		H    1.863988  -1.210538  -0.087379
		H    2.952998   0.403784  -0.303635
*
