! B3LYP 6-31G
!TightSCF
%scf
 ConvForced true
 convergence tight
 MaxIter 500
end
 
%tddft 
 nroots 1
end

# 	28811
* xyz 0 1
		C   -0.619396  -0.407979  -0.090078
		O   -0.531418  -1.626700   0.046283
		C    0.598233   0.387893   0.105779
		C    1.832418  -0.116267  -0.037675
		H   -1.544799   0.187662  -0.234977
		H    0.558483   1.530557   0.001935
		H    1.811472  -1.384335  -0.192319
		H    2.972690   0.366560  -0.042200
*
