! B3LYP 6-31G
!TightSCF
%scf
 ConvForced true
 convergence tight
 MaxIter 500
end
 
%tddft 
 nroots 1
end

# 	12047
* xyz 0 1
		C   -1.205793  -0.356581   0.037476
		O   -1.530377  -1.366658  -0.604839
		C    0.033521   0.468007  -0.236610
		C    1.261898   0.083315   0.091410
		H   -1.858498   0.035415   0.904940
		H   -0.253028   1.416397  -0.650313
		H    1.356396  -0.931007   0.544758
		H    2.141779   0.715374  -0.156267
*
