! B3LYP 6-31G
!TightSCF
%scf
 ConvForced true
 convergence tight
 MaxIter 500
end
 
%tddft 
 nroots 1
end

# 	25568
* xyz 0 1
		C   -0.598294  -0.449893   0.026111
		O   -0.548721  -1.604545  -0.030476
		C    0.633412   0.448021  -0.002122
		C    1.823075  -0.147139   0.037313
		H   -1.497016   0.074003   0.165697
		H    0.422063   1.405504  -0.266052
		H    1.778381  -1.401401   0.075372
		H    2.805691   0.397165  -0.250704
*
