! B3LYP 6-31G
!TightSCF
%scf
 ConvForced true
 convergence tight
 MaxIter 500
end
 
%tddft 
 nroots 1
end

# 	26364
* xyz 0 1
		C   -0.570745  -0.432913  -0.035966
		O   -0.577317  -1.614999   0.028949
		C    0.619746   0.422018   0.005045
		C    1.860420  -0.162476   0.002340
		H   -1.587362   0.150456  -0.168457
		H    0.322749   1.390643   0.275325
		H    1.952205  -1.130315  -0.152401
		H    2.650229   0.550767  -0.059532
*
