! B3LYP 6-31G
!TightSCF
%scf
 ConvForced true
 convergence tight
 MaxIter 500
end
 
%tddft 
 nroots 1
end

# 	21779
* xyz 0 1
		C   -0.570019  -0.406651  -0.032827
		O   -0.579654  -1.603891   0.002308
		C    0.664250   0.356677   0.017720
		C    1.794635  -0.121440   0.011002
		H   -1.620625   0.037839   0.239817
		H    0.444612   1.456660  -0.180707
		H    2.127730  -1.190702  -0.067265
		H    2.702128   0.473647   0.010929
*
