! B3LYP 6-31G
!TightSCF
%scf
 ConvForced true
 convergence tight
 MaxIter 500
end
 
%tddft 
 nroots 1
end

# 	10022
* xyz 0 1
		C   -1.210247  -0.255164   0.015067
		O   -1.157263  -1.434402   0.273761
		C    0.017452   0.590238   0.053706
		C    1.225110  -0.000814  -0.041115
		H   -2.119739   0.271084  -0.331929
		H   -0.181992   1.587187   0.388663
		H    1.196192  -1.210547  -0.207137
		H    2.278875   0.536676  -0.164298
*
