! B3LYP 6-31G
!TightSCF
%scf
 ConvForced true
 convergence tight
 MaxIter 500
end
 
%tddft 
 nroots 1
end

# 	25050
* xyz 0 1
		C   -0.560879  -0.449968  -0.034508
		O   -0.575160  -1.582138   0.009928
		C    0.567927   0.356579   0.058391
		C    1.861535  -0.112679  -0.048418
		H   -1.462234   0.300733  -0.044155
		H    0.509568   1.393101  -0.035735
		H    1.971081  -1.302890   0.206524
		H    2.773372   0.444811   0.004923
*
