! B3LYP 6-31G
!TightSCF
%scf
 ConvForced true
 convergence tight
 MaxIter 500
end
 
%tddft 
 nroots 1
end

# 	14929
* xyz 0 1
		C   -1.139264  -0.299006  -0.065331
		O   -1.477979  -1.296313  -0.647670
		C    0.022833   0.491563  -0.265183
		C    1.194169   0.012072   0.126850
		H   -1.848111   0.086704   0.796249
		H   -0.136257   1.579489  -0.548127
		H    1.234045  -1.160647   0.510627
		H    2.194424   0.534008   0.091864
*
