! B3LYP 6-31G
!TightSCF
%scf
 ConvForced true
 convergence tight
 MaxIter 500
end
 
%tddft 
 nroots 1
end

# 	10321
* xyz 0 1
		C   -1.166161  -0.334929  -0.011294
		O   -1.185368  -1.494986  -0.175277
		C    0.021860   0.474306  -0.084237
		C    1.258979  -0.017474   0.030758
		H   -2.239040   0.351730   0.304807
		H   -0.108749   1.440315  -0.200740
		H    1.305985  -1.133913  -0.011888
		H    2.047965   0.679845   0.134582
*
