! B3LYP 6-31G
!TightSCF
%scf
 ConvForced true
 convergence tight
 MaxIter 500
end
 
%tddft 
 nroots 1
end

# 	2334
* xyz 0 1
		C   -1.161628  -0.299354  -0.026836
		O   -1.890661  -0.708707   0.884024
		C    0.036718   0.492491   0.158595
		C    1.236539   0.029855  -0.137988
		H   -1.285325  -0.691089  -1.061956
		H   -0.218364   1.314934   0.920974
		H    1.316890  -0.710521  -0.718504
		H    2.000371   0.568540   0.021093
*
