! B3LYP 6-31G
!TightSCF
%scf
 ConvForced true
 convergence tight
 MaxIter 500
end
 
%tddft 
 nroots 1
end

# 	17404
* xyz 0 1
		C   -1.236101  -0.316555  -0.005320
		O   -1.255890  -1.463464  -0.258254
		C   -0.048560   0.485488  -0.118795
		C    1.276995  -0.045341   0.056560
		H   -2.065116   0.299667   0.214475
		H   -0.107367   1.595053  -0.170613
		H    1.439311  -1.094088   0.167930
		H    2.043023   0.542045   0.053926
*
