! B3LYP 6-31G
!TightSCF
%scf
 ConvForced true
 convergence tight
 MaxIter 500
end
 
%tddft 
 nroots 1
end

# 	13043
* xyz 0 1
		C   -1.195464  -0.438190   0.060456
		O   -1.294690  -1.584517   0.181102
		C    0.044856   0.458783   0.065228
		C    1.210257   0.032664  -0.041554
		H   -2.069864   0.354138  -0.182295
		H   -0.307123   1.630542   0.024037
		H    1.535916  -1.135272  -0.143902
		H    2.151096   0.666163   0.070486
*
