! B3LYP 6-31G
!TightSCF
%scf
 ConvForced true
 convergence tight
 MaxIter 500
end
 
%tddft 
 nroots 1
end

# 	24762
* xyz 0 1
		C   -0.567771  -0.432103   0.018039
		O   -0.557988  -1.573728  -0.027244
		C    0.601421   0.395621  -0.018163
		C    1.825859  -0.170444   0.013275
		H   -1.511897   0.103100   0.371805
		H    0.484626   1.346016  -0.304721
		H    1.987954  -1.219251   0.104485
		H    2.671168   0.472102   0.088381
*
