! B3LYP 6-31G
!TightSCF
%scf
 ConvForced true
 convergence tight
 MaxIter 500
end
 
%tddft 
 nroots 1
end

# 	14348
* xyz 0 1
		C   -1.163721  -0.300248   0.036699
		O   -1.427270  -1.256456   0.733756
		C   -0.014071   0.487234   0.219393
		C    1.206516   0.043883  -0.224108
		H   -1.904589  -0.037688  -0.798654
		H   -0.229239   1.548492   0.533544
		H    1.446068  -1.027187  -0.527546
		H    2.133469   0.570527   0.048994
*
