! B3LYP 6-31G
!TightSCF
%scf
 ConvForced true
 convergence tight
 MaxIter 500
end
 
%tddft 
 nroots 1
end

# 	23959
* xyz 0 1
		C   -0.595165  -0.436174  -0.028235
		O   -0.592605  -1.631892   0.024790
		C    0.647351   0.384056   0.025307
		C    1.852851  -0.108262  -0.010183
		H   -1.659012   0.179350  -0.187082
		H    0.432408   1.503978   0.106585
		H    2.184374  -1.098864  -0.183274
		H    2.702429   0.518892   0.039102
*
