! B3LYP 6-31G
!TightSCF
%scf
 ConvForced true
 convergence tight
 MaxIter 500
end
 
%tddft 
 nroots 1
end

# 	22206
* xyz 0 1
		C   -0.575625  -0.441046   0.022778
		O   -0.604651  -1.659309  -0.010076
		C    0.649989   0.424957  -0.003779
		C    1.835696  -0.107095  -0.009418
		H   -1.404728   0.047770   0.033581
		H    0.589710   1.635695  -0.144342
		H    1.985024  -1.129934  -0.005485
		H    2.673446   0.496141   0.163975
*
