! B3LYP 6-31G
!TightSCF
%scf
 ConvForced true
 convergence tight
 MaxIter 500
end
 
%tddft 
 nroots 1
end

# 	6337
* xyz 0 1
		C   -1.205984  -0.347928   0.052498
		O   -2.142294  -0.422929   0.779679
		C    0.098871   0.427460   0.339877
		C    1.184697   0.088105  -0.253411
		H   -1.329979  -1.103404  -0.971798
		H    0.117935   1.272176   1.167606
		H    1.190310  -0.379657  -1.223552
		H    2.151461   0.450731   0.104135
*
