! B3LYP 6-31G
!TightSCF
%scf
 ConvForced true
 convergence tight
 MaxIter 500
end
 
%tddft 
 nroots 1
end

# 	22108
* xyz 0 1
		C   -0.612329  -0.413197  -0.003778
		O   -0.576819  -1.659373  -0.009837
		C    0.607699   0.437729   0.046938
		C    1.889014  -0.130665  -0.025846
		H   -1.589505  -0.009433   0.019126
		H    0.487470   1.472173  -0.216617
		H    1.946965  -1.145610   0.176954
		H    2.805903   0.520421  -0.044194
*
