! B3LYP 6-31G
!TightSCF
%scf
 ConvForced true
 convergence tight
 MaxIter 500
end
 
%tddft 
 nroots 1
end

# 	23502
* xyz 0 1
		C   -0.557727  -0.411735   0.038018
		O   -0.549975  -1.644423  -0.020168
		C    0.604246   0.450189  -0.001880
		C    1.809498  -0.170888   0.013018
		H   -1.583085   0.176979  -0.032896
		H    0.358967   1.650802  -0.182683
		H    1.924654  -1.269783  -0.010042
		H    2.875781   0.404224  -0.050366
*
