! B3LYP 6-31G
!TightSCF
%scf
 ConvForced true
 convergence tight
 MaxIter 500
end
 
%tddft 
 nroots 1
end

# 	18054
* xyz 0 1
		C   -1.222368  -0.380232  -0.115491
		O   -1.741109  -0.957345  -0.934215
		C    0.054686   0.444588  -0.224380
		C    1.203565   0.049296   0.203720
		H   -1.560218  -0.309235   0.894357
		H   -0.102295   1.455701  -0.625022
		H    1.329524  -0.949672   0.663830
		H    2.029988   0.675091   0.120274
*
