! B3LYP 6-31G
!TightSCF
%scf
 ConvForced true
 convergence tight
 MaxIter 500
end
 
%tddft 
 nroots 1
end

# 	8950
* xyz 0 1
		C   -1.221862  -0.263992  -0.099078
		O   -1.573840  -1.004529  -0.903683
		C    0.006949   0.547655  -0.228685
		C    1.155867   0.018211   0.179592
		H   -1.655607  -0.355017   0.992150
		H   -0.076666   1.524215  -0.677974
		H    1.174826  -1.074554   0.584199
		H    2.224505   0.595214   0.161875
*
