! B3LYP 6-31G
!TightSCF
%scf
 ConvForced true
 convergence tight
 MaxIter 500
end
 
%tddft 
 nroots 1
end

# 	5949
* xyz 0 1
		C   -1.131599  -0.305650   0.061795
		O   -1.400969  -1.290943   0.726263
		C    0.023871   0.499622   0.239668
		C    1.268011   0.082345  -0.187911
		H   -1.947952  -0.095048  -0.785401
		H   -0.201369   1.579784   0.510625
		H    1.239429  -1.153390  -0.524576
		H    2.178841   0.701179  -0.132630
*
