! B3LYP 6-31G
!TightSCF
%scf
 ConvForced true
 convergence tight
 MaxIter 500
end
 
%tddft 
 nroots 1
end

# 	7594
* xyz 0 1
		C   -1.214111  -0.371972   0.011072
		O   -2.058124  -0.583831  -0.789902
		C    0.017273   0.420736  -0.368742
		C    1.208825   0.130960   0.235521
		H   -1.203653  -0.704470   0.997420
		H   -0.125405   1.140781  -1.185208
		H    1.295318  -0.620430   1.119073
		H    2.119718   0.631388  -0.008003
*
