! B3LYP 6-31G
!TightSCF
%scf
 ConvForced true
 convergence tight
 MaxIter 500
end
 
%tddft 
 nroots 1
end

# 	2384
* xyz 0 1
		C   -1.157019  -0.387577  -0.099399
		O   -1.362453  -1.411007   0.390741
		C    0.027914   0.535286   0.171456
		C    1.174860  -0.003847  -0.114368
		H   -1.980527  -0.003401  -0.653447
		H   -0.245530   1.641096   0.474261
		H    1.511351  -0.937645  -0.393462
		H    2.001197   0.635364   0.212060
*
