! B3LYP 6-31G
!TightSCF
%scf
 ConvForced true
 convergence tight
 MaxIter 500
end
 
%tddft 
 nroots 1
end

# 	8792
* xyz 0 1
		C   -1.188790  -0.302448  -0.045950
		O   -1.737678  -1.001591  -0.863071
		C    0.028215   0.410904  -0.263395
		C    1.243739   0.059945   0.174978
		H   -1.559068  -0.179922   0.974777
		H   -0.104396   1.300158  -0.734610
		H    1.206176  -0.983244   0.703609
		H    2.086792   0.655385   0.000858
*
