! B3LYP 6-31G
!TightSCF
%scf
 ConvForced true
 convergence tight
 MaxIter 500
end
 
%tddft 
 nroots 1
end

# 	15001
* xyz 0 1
		C   -1.213721  -0.338438   0.021577
		O   -1.277840  -1.515780   0.183755
		C    0.032707   0.517314   0.097254
		C    1.185178  -0.007211   0.014173
		H   -2.114317   0.134162  -0.336352
		H   -0.190598   1.559983   0.225300
		H    1.449368  -1.018612  -0.206184
		H    2.162967   0.648081  -0.040874
*
