! B3LYP 6-31G
!TightSCF
%scf
 ConvForced true
 convergence tight
 MaxIter 500
end
 
%tddft 
 nroots 1
end

# 	28488
* xyz 0 1
		C   -0.566454  -0.426140   0.013519
		O   -0.598864  -1.609380  -0.004780
		C    0.637221   0.320702  -0.011781
		C    1.855350  -0.091143   0.008330
		H   -1.629114   0.251896   0.021010
		H    0.416253   1.447715  -0.053645
		H    2.005945  -1.113845  -0.066598
		H    2.699659   0.578112   0.056376
*
