! B3LYP 6-31G
!TightSCF
%scf
 ConvForced true
 convergence tight
 MaxIter 500
end
 
%tddft 
 nroots 1
end

# 	16103
* xyz 0 1
		C   -1.159577  -0.327372  -0.009071
		O   -1.273517  -1.546181   0.110705
		C    0.017689   0.504691   0.013170
		C    1.258407  -0.004176  -0.092636
		H   -2.098197   0.245386  -0.104089
		H   -0.275473   1.509323  -0.002049
		H    1.530248  -1.010831  -0.053667
		H    2.058108   0.639776   0.148773
*
