! B3LYP 6-31G
!TightSCF
%scf
 ConvForced true
 convergence tight
 MaxIter 500
end
 
%tddft 
 nroots 1
end

# 	25292
* xyz 0 1
		C   -0.634461  -0.456040  -0.028040
		O   -0.572824  -1.616095   0.023596
		C    0.675186   0.438738  -0.020714
		C    1.846656  -0.143966   0.000471
		H   -1.625322   0.028166  -0.051236
		H    0.357244   1.409979   0.313069
		H    2.080309  -1.153095  -0.071999
		H    2.731487   0.548832   0.028126
*
