! B3LYP 6-31G
!TightSCF
%scf
 ConvForced true
 convergence tight
 MaxIter 500
end
 
%tddft 
 nroots 1
end

# 	14186
* xyz 0 1
		C   -1.191699  -0.283687  -0.045863
		O   -1.506085  -1.213533  -0.700732
		C    0.044927   0.556000  -0.283994
		C    1.194223   0.101061   0.112187
		H   -1.841865  -0.220088   1.069350
		H   -0.135019   1.463891  -0.728739
		H    1.242220  -0.994522   0.504342
		H    2.212306   0.632859   0.063475
*
