! B3LYP 6-31G
!TightSCF
%scf
 ConvForced true
 convergence tight
 MaxIter 500
end
 
%tddft 
 nroots 1
end

# 	24166
* xyz 0 1
		C   -0.591973  -0.439165   0.046411
		O   -0.579899  -1.614122  -0.041517
		C    0.607723   0.425783  -0.013312
		C    1.849776  -0.145064  -0.004797
		H   -1.498111   0.062759   0.273641
		H    0.453375   1.377304  -0.317015
		H    2.155490  -1.066713   0.311529
		H    2.790640   0.399392   0.032405
*
