! B3LYP 6-31G
!TightSCF
%scf
 ConvForced true
 convergence tight
 MaxIter 500
end
 
%tddft 
 nroots 1
end

# 	10908
* xyz 0 1
		C   -1.203314  -0.302729   0.020059
		O   -1.597499  -1.139904   0.808670
		C    0.025346   0.519463   0.257496
		C    1.204381   0.000017  -0.053747
		H   -1.575695  -0.185762  -1.043438
		H   -0.145377   1.515182   0.550083
		H    1.288532  -0.981655  -0.537497
		H    2.029125   0.654120  -0.065503
*
