! B3LYP 6-31G
!TightSCF
%scf
 ConvForced true
 convergence tight
 MaxIter 500
end
 
%tddft 
 nroots 1
end

# 	1572
* xyz 0 1
		C   -1.189522  -0.414087  -0.008278
		O   -2.001780  -0.815659   0.853877
		C   -0.001020   0.449980   0.305657
		C    1.211482   0.106262  -0.095185
		H   -1.470636  -0.629299  -1.033560
		H   -0.050748   1.293157   0.818164
		H    1.281319  -0.770975  -0.882599
		H    2.242024   0.705173   0.063974
*
