! B3LYP 6-31G
!TightSCF
%scf
 ConvForced true
 convergence tight
 MaxIter 500
end
 
%tddft 
 nroots 1
end

# 	8378
* xyz 0 1
		C   -1.164938  -0.379768  -0.089910
		O   -2.091024  -0.438037  -0.822970
		C   -0.047480   0.458704  -0.276723
		C    1.105405   0.191611   0.330337
		H   -0.911933  -1.117137   0.800697
		H   -0.136578   1.395189  -1.058017
		H    1.201393  -0.792811   1.085718
		H    1.967709   0.685737   0.055055
*
