! B3LYP 6-31G
!TightSCF
%scf
 ConvForced true
 convergence tight
 MaxIter 500
end
 
%tddft 
 nroots 1
end

# 	21886
* xyz 0 1
		C   -0.618221  -0.417793  -0.058036
		O   -0.613108  -1.699786   0.038709
		C    0.683062   0.410231   0.001100
		C    1.879080  -0.062764  -0.013194
		H   -1.578923   0.093436  -0.059848
		H    0.429174   1.483398   0.339697
		H    1.907429  -1.114203  -0.116034
		H    2.778153   0.593494   0.079649
*
