! B3LYP 6-31G
!TightSCF
%scf
 ConvForced true
 convergence tight
 MaxIter 500
end
 
%tddft 
 nroots 1
end

# 	8951
* xyz 0 1
		C   -1.232652  -0.258620  -0.061795
		O   -1.628475  -0.922630  -0.930557
		C    0.016268   0.509929  -0.267087
		C    1.196475   0.008964   0.140537
		H   -1.607464  -0.448357   1.015985
		H   -0.109678   1.490995  -0.734673
		H    1.140849  -1.041107   0.672544
		H    2.176208   0.634448   0.190841
*
