! B3LYP 6-31G
!TightSCF
%scf
 ConvForced true
 convergence tight
 MaxIter 500
end
 
%tddft 
 nroots 1
end

# 	19923
* xyz 0 1
		C   -1.192395  -0.283684   0.019881
		O   -1.180126  -1.442011  -0.295465
		C    0.031741   0.546804  -0.027635
		C    1.226056  -0.039595   0.152986
		H   -2.155642   0.199455   0.337245
		H   -0.080739   1.513213  -0.424320
		H    1.147536  -1.018389   0.325274
		H    2.221188   0.472681  -0.097825
*
