! B3LYP 6-31G
!TightSCF
%scf
 ConvForced true
 convergence tight
 MaxIter 500
end
 
%tddft 
 nroots 1
end

# 	5128
* xyz 0 1
		C   -1.231205  -0.286180  -0.041910
		O   -1.622011  -0.986657  -0.869344
		C    0.004507   0.545730  -0.191453
		C    1.183350   0.007456   0.189461
		H   -1.656721  -0.336498   1.046017
		H   -0.190382   1.395130  -0.797817
		H    1.293325  -0.947870   0.663004
		H    2.286285   0.570952   0.014630
*
