! B3LYP 6-31G
!TightSCF
%scf
 ConvForced true
 convergence tight
 MaxIter 500
end
 
%tddft 
 nroots 1
end

# 	29905
* xyz 0 1
		C   -0.633219  -0.397454   0.062389
		O   -0.501984  -1.618040  -0.034700
		C    0.588893   0.432821  -0.044403
		C    1.834210  -0.182352   0.016173
		H   -1.626455   0.180874   0.086578
		H    0.406634   1.463142  -0.091381
		H    1.819240  -1.418031   0.176435
		H    2.966357   0.477192  -0.038521
*
