! B3LYP 6-31G
!TightSCF
%scf
 ConvForced true
 convergence tight
 MaxIter 500
end
 
%tddft 
 nroots 1
end

# 	13399
* xyz 0 1
		C   -1.196728  -0.334279   0.100833
		O   -2.220781  -0.170866   0.679837
		C    0.091959   0.344114   0.435798
		C    1.253465   0.040552  -0.266284
		H   -1.153785  -1.168216  -0.874472
		H    0.062245   1.141124   1.341217
		H    1.243881  -0.635782  -1.133738
		H    1.995275   0.752392  -0.282010
*
