! B3LYP 6-31G
!TightSCF
%scf
 ConvForced true
 convergence tight
 MaxIter 500
end
 
%tddft 
 nroots 1
end

# 	18006
* xyz 0 1
		C   -1.221004  -0.297880   0.025282
		O   -1.481358  -1.356954  -0.597009
		C   -0.022814   0.515325  -0.183598
		C    1.188439   0.000973   0.025377
		H   -1.925621  -0.049276   0.843042
		H   -0.165939   1.489380  -0.572068
		H    1.516493  -0.972890   0.449993
		H    2.190823   0.638198   0.009928
*
