! B3LYP 6-31G
!TightSCF
%scf
 ConvForced true
 convergence tight
 MaxIter 500
end
 
%tddft 
 nroots 1
end

# 	31252
* xyz 0 1
		C   -0.617587  -0.407666   0.001834
		O   -0.508386  -1.604787  -0.009769
		C    0.576600   0.413506   0.003674
		C    1.846857  -0.194540  -0.008189
		H   -1.560495   0.281469   0.082995
		H    0.412210   1.511682  -0.031162
		H    1.799937  -1.266501   0.192000
		H    2.817222   0.472762  -0.065825
*
