! B3LYP 6-31G
!TightSCF
%scf
 ConvForced true
 convergence tight
 MaxIter 500
end
 
%tddft 
 nroots 1
end

# 	27751
* xyz 0 1
		C   -0.609240  -0.375709   0.026474
		O   -0.566678  -1.656527  -0.027795
		C    0.628811   0.419049   0.007901
		C    1.878531  -0.145394   0.004707
		H   -1.573618  -0.049708   0.125226
		H    0.300687   1.539449  -0.245061
		H    1.998107  -1.338946   0.186027
		H    2.616136   0.618931  -0.112272
*
