! B3LYP 6-31G
!TightSCF
%scf
 ConvForced true
 convergence tight
 MaxIter 500
end
 
%tddft 
 nroots 1
end

# 	6520
* xyz 0 1
		C   -1.226748  -0.298183  -0.013074
		O   -1.170625  -1.564918  -0.061752
		C   -0.040562   0.514241  -0.085181
		C    1.244874   0.005786  -0.057530
		H   -2.118092   0.412139   0.040343
		H   -0.275482   1.571330   0.008028
		H    1.327466  -1.165285   0.076323
		H    2.280204   0.569065   0.123233
*
