! B3LYP 6-31G
!TightSCF
%scf
 ConvForced true
 convergence tight
 MaxIter 500
end
 
%tddft 
 nroots 1
end

# 	16713
* xyz 0 1
		C   -1.202332  -0.351228  -0.043882
		O   -1.753708  -1.060926  -0.833803
		C    0.057744   0.452602  -0.251296
		C    1.239387   0.003822   0.195736
		H   -1.623051  -0.219735   0.908960
		H    0.011264   1.489402  -0.635049
		H    1.303190  -0.958920   0.587848
		H    2.051645   0.676945   0.031717
*
