! B3LYP 6-31G
!TightSCF
%scf
 ConvForced true
 convergence tight
 MaxIter 500
end
 
%tddft 
 nroots 1
end

# 	16464
* xyz 0 1
		C   -1.217768  -0.273854   0.072833
		O   -1.388439  -1.319087  -0.564273
		C   -0.021478   0.561679  -0.111330
		C    1.229543   0.050430   0.081735
		H   -1.871890   0.089992   0.730042
		H   -0.303309   1.530413  -0.443256
		H    1.343870  -1.129935   0.347108
		H    2.218935   0.507802  -0.156242
*
