! B3LYP 6-31G
!TightSCF
%scf
 ConvForced true
 convergence tight
 MaxIter 500
end
 
%tddft 
 nroots 1
end

# 	16232
* xyz 0 1
		C   -1.227626  -0.303609  -0.038945
		O   -1.607844  -1.133407  -0.852996
		C    0.016678   0.485830  -0.285618
		C    1.217601   0.035734   0.213034
		H   -1.634038  -0.201898   0.902684
		H   -0.176701   1.514395  -0.593915
		H    1.425667  -0.957689   0.597811
		H    1.974799   0.587146   0.066723
*
