! B3LYP 6-31G
!TightSCF
%scf
 ConvForced true
 convergence tight
 MaxIter 500
end
 
%tddft 
 nroots 1
end

# 	19993
* xyz 0 1
		C   -1.256405  -0.314506   0.101412
		O   -1.652330  -0.968348   0.926713
		C   -0.009529   0.501780   0.094667
		C    1.182159  -0.026703  -0.189894
		H   -1.843090  -0.246926  -0.860368
		H    0.002751   1.541003   0.543099
		H    1.320312  -1.101659  -0.515615
		H    2.203592   0.555146  -0.122863
*
