! B3LYP 6-31G
!TightSCF
%scf
 ConvForced true
 convergence tight
 MaxIter 500
end
 
%tddft 
 nroots 1
end

# 	22408
* xyz 0 1
		C   -0.610334  -0.451226  -0.059649
		O   -0.575275  -1.618985   0.014909
		C    0.674213   0.426772   0.044177
		C    1.822491  -0.133754  -0.014766
		H   -1.645548   0.001402   0.108859
		H    0.529497   1.521505   0.019089
		H    2.076480  -1.109683   0.126526
		H    2.662166   0.425999  -0.140420
*
