! B3LYP 6-31G
!TightSCF
%scf
 ConvForced true
 convergence tight
 MaxIter 500
end
 
%tddft 
 nroots 1
end

# 	29643
* xyz 0 1
		C   -0.476947  -0.394269  -0.025891
		O   -0.543111  -1.640598   0.000330
		C    0.589215   0.471010  -0.003561
		C    1.731390  -0.210249   0.036406
		H   -1.387441   0.286056   0.270982
		H    0.564475   1.604858  -0.163287
		H    1.810456  -1.355826  -0.175264
		H    2.673573   0.376266  -0.030493
*
