! B3LYP 6-31G
!TightSCF
%scf
 ConvForced true
 convergence tight
 MaxIter 500
end
 
%tddft 
 nroots 1
end

# 	2643
* xyz 0 1
		C   -1.200181  -0.319776  -0.000828
		O   -1.351387  -1.522980   0.351117
		C   -0.020394   0.523824   0.146303
		C    1.161529   0.039201  -0.043528
		H   -1.950038   0.253125  -0.559618
		H   -0.169360   1.567655   0.266106
		H    1.379072  -1.074175  -0.077613
		H    2.127250   0.613603  -0.081440
*
