! B3LYP 6-31G
!TightSCF
%scf
 ConvForced true
 convergence tight
 MaxIter 500
end
 
%tddft 
 nroots 1
end

# 	10670
* xyz 0 1
		C   -1.254105  -0.301609  -0.006343
		O   -1.638162  -1.086738   0.768891
		C    0.001562   0.552660   0.162151
		C    1.184695   0.075522  -0.128424
		H   -1.528647  -0.344767  -1.083141
		H   -0.184396   1.449061   0.759457
		H    1.278800  -1.009094  -0.494934
		H    2.082925   0.690883   0.006272
*
