! B3LYP 6-31G
!TightSCF
%scf
 ConvForced true
 convergence tight
 MaxIter 500
end
 
%tddft 
 nroots 1
end

# 	27085
* xyz 0 1
		C   -0.618558  -0.443612  -0.049486
		O   -0.511151  -1.597856   0.006445
		C    0.603186   0.471290   0.069955
		C    1.811044  -0.209724  -0.010795
		H   -1.534139   0.162714   0.017184
		H    0.554080   1.501419  -0.109250
		H    1.879495  -1.213620   0.138325
		H    2.758002   0.344155  -0.285723
*
