! B3LYP 6-31G
!TightSCF
%scf
 ConvForced true
 convergence tight
 MaxIter 500
end
 
%tddft 
 nroots 1
end

# 	5233
* xyz 0 1
		C   -1.219507  -0.306930  -0.012742
		O   -1.864624  -0.879935  -0.814253
		C    0.036511   0.424561  -0.269681
		C    1.230001   0.059391   0.120145
		H   -1.269397  -0.321649   1.127594
		H   -0.060634   1.324337  -0.985306
		H    1.178982  -0.946433   0.754603
		H    1.968801   0.603397   0.088855
*
