! B3LYP 6-31G
!TightSCF
%scf
 ConvForced true
 convergence tight
 MaxIter 500
end
 
%tddft 
 nroots 1
end

# 	1497
* xyz 0 1
		C   -1.199665  -0.377291   0.000732
		O   -2.129707  -0.474181   0.748691
		C    0.002279   0.277539   0.401627
		C    1.157712   0.102349  -0.226729
		H   -1.163235  -0.877346  -0.984939
		H   -0.070934   1.213117   1.239604
		H    1.238396  -0.602410  -0.999081
		H    2.127873   0.758276  -0.067418
*
