! B3LYP 6-31G
!TightSCF
%scf
 ConvForced true
 convergence tight
 MaxIter 500
end
 
%tddft 
 nroots 1
end

# 	16040
* xyz 0 1
		C   -1.178923  -0.316993  -0.048481
		O   -1.151715  -1.543388  -0.011299
		C    0.037851   0.601002  -0.003531
		C    1.300931  -0.007843  -0.045398
		H   -2.193834   0.109490  -0.089704
		H   -0.080613   1.530674   0.143612
		H    1.156460  -1.095769   0.147616
		H    2.134383   0.702117  -0.116171
*
