! B3LYP 6-31G
!TightSCF
%scf
 ConvForced true
 convergence tight
 MaxIter 500
end
 
%tddft 
 nroots 1
end

# 	27442
* xyz 0 1
		C   -0.610369  -0.415076   0.039487
		O   -0.529989  -1.608796  -0.016940
		C    0.625553   0.388040  -0.048414
		C    1.813177  -0.136354   0.007403
		H   -1.644587   0.259060   0.058662
		H    0.456586   1.409164   0.067935
		H    1.840108  -1.241433   0.114767
		H    2.886107   0.326178   0.048180
*
