! B3LYP 6-31G
!TightSCF
%scf
 ConvForced true
 convergence tight
 MaxIter 500
end
 
%tddft 
 nroots 1
end

# 	29533
* xyz 0 1
		C   -0.600314  -0.426661  -0.029157
		O   -0.523461  -1.616871   0.010729
		C    0.643840   0.447810   0.015100
		C    1.815468  -0.180590  -0.018846
		H   -1.538525   0.166665   0.076100
		H    0.395216   1.563343   0.022201
		H    1.601340  -1.339238   0.048530
		H    2.649053   0.415895   0.078606
*
