! B3LYP 6-31G
!TightSCF
%scf
 ConvForced true
 convergence tight
 MaxIter 500
end
 
%tddft 
 nroots 1
end

# 	5135
* xyz 0 1
		C   -1.220126  -0.279966  -0.070788
		O   -2.059211  -0.381053  -0.850985
		C    0.032565   0.477615  -0.363946
		C    1.162296   0.031295   0.250990
		H   -1.230743  -0.884022   0.937114
		H   -0.204795   1.079594  -1.084859
		H    1.219491  -0.693336   1.027874
		H    2.342084   0.626321   0.055133
*
