! B3LYP 6-31G
!TightSCF
%scf
 ConvForced true
 convergence tight
 MaxIter 500
end
 
%tddft 
 nroots 1
end

# 	12740
* xyz 0 1
		C   -1.149438  -0.335568  -0.005550
		O   -1.211079  -1.529842   0.024703
		C   -0.014371   0.506570   0.005833
		C    1.194889  -0.078025  -0.010636
		H   -2.112466   0.127683  -0.197269
		H   -0.032743   1.690277   0.303610
		H    1.280512  -1.043108   0.013194
		H    2.060830   0.622649  -0.158041
*
