! B3LYP 6-31G
!TightSCF
%scf
 ConvForced true
 convergence tight
 MaxIter 500
end
 
%tddft 
 nroots 1
end

# 	17345
* xyz 0 1
		C   -1.208705  -0.308454   0.011295
		O   -1.352662  -1.410498  -0.534734
		C    0.005301   0.457319  -0.106702
		C    1.194976   0.026414   0.111168
		H   -2.006990   0.030449   0.713623
		H   -0.003697   1.615899  -0.469156
		H    1.410715  -1.079653   0.276381
		H    2.000476   0.720615  -0.029000
*
