! B3LYP 6-31G
!TightSCF
%scf
 ConvForced true
 convergence tight
 MaxIter 500
end
 
%tddft 
 nroots 1
end

# 	13409
* xyz 0 1
		C   -1.209892  -0.361153  -0.071048
		O   -1.526398  -1.222187  -0.813900
		C   -0.002099   0.447256  -0.159701
		C    1.222756   0.054491   0.214642
		H   -1.943578  -0.051495   0.798847
		H   -0.010335   1.451985  -0.627725
		H    1.285799  -0.981096   0.617920
		H    2.146510   0.593630   0.057950
*
