! B3LYP cc-pVDZ
!TightSCF
%scf
 ConvForced true
 convergence tight
 MaxIter 500
end
 
%tddft 
 nroots 1
end

# 	24965
* xyz 0 1
		C   -0.614502  -0.432603   0.037123
		O   -0.552173  -1.623467  -0.006929
		C    0.628828   0.430862  -0.056893
		C    1.835224  -0.151300   0.000734
		H   -1.568320   0.012751   0.046586
		H    0.377586   1.655200   0.080997
		H    1.976576  -1.155685  -0.037231
		H    2.883414   0.344099   0.263602
*
