! B3LYP cc-pVDZ
!TightSCF
%scf
 ConvForced true
 convergence tight
 MaxIter 500
end
 
%tddft 
 nroots 1
end

# 	20655
* xyz 0 1
		C   -0.598922  -0.435948   0.035273
		O   -0.580801  -1.659665  -0.021679
		C    0.649155   0.441046  -0.081986
		C    1.847043  -0.133841   0.030660
		H   -1.504602   0.121777   0.296630
		H    0.410979   1.568495   0.067398
		H    1.849509  -1.192876   0.097377
		H    2.830911   0.627473   0.074550
*
