! B3LYP cc-pVDZ
!TightSCF
%scf
 ConvForced true
 convergence tight
 MaxIter 500
end
 
%tddft 
 nroots 1
end

# 	27205
* xyz 0 1
		C   -0.525759  -0.397783   0.001664
		O   -0.578843  -1.644220  -0.009859
		C    0.609725   0.418938  -0.022152
		C    1.829648  -0.142672  -0.002256
		H   -1.597001   0.084543   0.222518
		H    0.438108   1.571438  -0.017096
		H    1.904498  -1.336880   0.156886
		H    2.623878   0.484467   0.062091
*
