! B3LYP cc-pVDZ
!TightSCF
%scf
 ConvForced true
 convergence tight
 MaxIter 500
end
 
%tddft 
 nroots 1
end

# 	12995
* xyz 0 1
		C   -1.186694  -0.332640  -0.065061
		O   -1.988928  -0.560243  -0.938980
		C    0.059938   0.455026  -0.273731
		C    1.199756   0.064668   0.295689
		H   -1.291628  -0.769104   0.953354
		H   -0.103636   1.234953  -0.999230
		H    1.206141  -0.788917   0.876739
		H    2.111513   0.690198   0.179466
*
