! B3LYP cc-pVDZ
!TightSCF
%scf
 ConvForced true
 convergence tight
 MaxIter 500
end
 
%tddft 
 nroots 1
end

# 	29360
* xyz 0 1
		C   -0.631161  -0.403464  -0.035725
		O   -0.562979  -1.593657   0.013680
		C    0.665369   0.344739   0.041398
		C    1.845182  -0.130652  -0.039709
		H   -1.577569   0.010967   0.049941
		H    0.460459   1.336294  -0.080983
		H    1.978840  -1.130965   0.047547
		H    2.609963   0.585726   0.176951
*
