! B3LYP cc-pVDZ
!TightSCF
%scf
 ConvForced true
 convergence tight
 MaxIter 500
end
 
%tddft 
 nroots 1
end

# 	28903
* xyz 0 1
		C   -0.558669  -0.394509   0.042013
		O   -0.540729  -1.641674  -0.034800
		C    0.597693   0.420566   0.000335
		C    1.818393  -0.146030  -0.016211
		H   -1.579168   0.203633   0.119353
		H    0.359248   1.519226  -0.208785
		H    1.651274  -1.198582   0.357116
		H    2.928751   0.211833  -0.045740
*
