! B3LYP cc-pVDZ
!TightSCF
%scf
 ConvForced true
 convergence tight
 MaxIter 500
end
 
%tddft 
 nroots 1
end

# 	24133
* xyz 0 1
		C   -0.631640  -0.424263  -0.050078
		O   -0.531970  -1.614777   0.046956
		C    0.612273   0.422702   0.012588
		C    1.841836  -0.167824  -0.035532
		H   -1.495264   0.070725  -0.292577
		H    0.541936   1.619350   0.442398
		H    1.891718  -1.309023  -0.122470
		H    2.761489   0.524736   0.130393
*
