! B3LYP cc-pVDZ
!TightSCF
%scf
 ConvForced true
 convergence tight
 MaxIter 500
end
 
%tddft 
 nroots 1
end

# 	24544
* xyz 0 1
		C   -0.581832  -0.438693   0.054693
		O   -0.592607  -1.656814  -0.024029
		C    0.592530   0.436858  -0.051043
		C    1.881980  -0.116553   0.023617
		H   -1.540877   0.143512   0.018777
		H    0.596386   1.499361   0.009060
		H    2.056528  -1.155466   0.055985
		H    2.711153   0.475693  -0.030300
*
