! B3LYP cc-pVDZ
!TightSCF
%scf
 ConvForced true
 convergence tight
 MaxIter 500
end
 
%tddft 
 nroots 1
end

# 	32477
* xyz 0 1
		C   -0.571932  -0.452336   0.000411
		O   -0.624622  -1.661683   0.001553
		C    0.656593   0.398366  -0.035613
		C    1.845826  -0.082724  -0.014834
		H   -1.540241   0.191344   0.218588
		H    0.610742   1.446291   0.014228
		H    2.033688  -0.996981   0.007893
		H    2.789309   0.613272   0.346762
*
