! B3LYP cc-pVDZ
!TightSCF
%scf
 ConvForced true
 convergence tight
 MaxIter 500
end
 
%tddft 
 nroots 1
end

# 	636
* xyz 0 1
		C   -1.177027  -0.345514   0.122472
		O   -1.929873  -0.600353   0.967647
		C    0.015280   0.415200   0.308986
		C    1.211991  -0.005168  -0.248348
		H   -1.433491  -0.659495  -0.985811
		H   -0.025774   1.368161   0.929100
		H    1.258928  -0.877030  -0.838354
		H    2.138317   0.631445  -0.248180
*
