! B3LYP cc-pVDZ
!TightSCF
%scf
 ConvForced true
 convergence tight
 MaxIter 500
end
 
%tddft 
 nroots 1
end

# 	1695
* xyz 0 1
		C   -1.174186  -0.370212   0.076845
		O   -1.861300  -0.784262   0.957365
		C    0.024664   0.412662   0.269010
		C    1.243930   0.019984  -0.250319
		H   -1.578748  -0.510277  -1.193014
		H    0.043243   1.295724   1.003324
		H    1.311034  -0.675113  -0.797680
		H    2.017732   0.615805  -0.036846
*
