! B3LYP cc-pVDZ
!TightSCF
%scf
 ConvForced true
 convergence tight
 MaxIter 500
end
 
%tddft 
 nroots 1
end

# 	12175
* xyz 0 1
		C   -1.172915  -0.283900  -0.064402
		O   -1.864596  -0.758165  -1.016727
		C    0.029012   0.488818  -0.256835
		C    1.177760   0.133160   0.248244
		H   -1.480964  -0.580461   1.014112
		H   -0.031967   1.319339  -0.858987
		H    1.256518  -0.892261   0.833358
		H    2.094993   0.638726   0.120726
*
