! B3LYP cc-pVDZ
!TightSCF
%scf
 ConvForced true
 convergence tight
 MaxIter 500
end
 
%tddft 
 nroots 1
end

# 	15732
* xyz 0 1
		C   -1.269094  -0.276249  -0.026204
		O   -1.799457  -0.983996   0.845530
		C   -0.044470   0.496956   0.172494
		C    1.156816   0.057142  -0.184799
		H   -1.594622  -0.326365  -0.978239
		H   -0.082255   1.446027   0.727532
		H    1.407212  -0.934003  -0.602691
		H    2.165868   0.495494   0.007156
*
