! B3LYP cc-pVDZ
!TightSCF
%scf
 ConvForced true
 convergence tight
 MaxIter 500
end
 
%tddft 
 nroots 1
end

# 	28843
* xyz 0 1
		C   -0.617765  -0.430529   0.037525
		O   -0.575998  -1.640873  -0.032870
		C    0.664134   0.438518  -0.024034
		C    1.856491  -0.129238   0.035315
		H   -1.536211  -0.162216   0.153447
		H    0.528934   1.537181  -0.148601
		H    1.770404  -1.239897   0.153971
		H    2.688323   0.554061  -0.243234
*
