! B3LYP cc-pVDZ
!TightSCF
%scf
 ConvForced true
 convergence tight
 MaxIter 500
end
 
%tddft 
 nroots 1
end

# 	12187
* xyz 0 1
		C   -1.144652  -0.308243   0.074582
		O   -1.390532  -1.343182   0.641750
		C    0.000310   0.584609   0.230720
		C    1.197796   0.026272  -0.216598
		H   -1.826927   0.170476  -0.869682
		H   -0.025300   1.424435   0.771820
		H    0.965169  -1.122063  -0.441000
		H    2.191016   0.502127  -0.103754
*
