! B3LYP cc-pVDZ
!TightSCF
%scf
 ConvForced true
 convergence tight
 MaxIter 500
end
 
%tddft 
 nroots 1
end

# 	31128
* xyz 0 1
		C   -0.616623  -0.457319  -0.018364
		O   -0.541878  -1.604353   0.019364
		C    0.610868   0.431378   0.020953
		C    1.839826  -0.166417  -0.012245
		H   -1.474505   0.229830  -0.204208
		H    0.480749   1.546681   0.126964
		H    1.897359  -1.133641  -0.104586
		H    2.776465   0.382629  -0.000130
*
