! B3LYP cc-pVDZ
!TightSCF
%scf
 ConvForced true
 convergence tight
 MaxIter 500
end
 
%tddft 
 nroots 1
end

# 	20857
* xyz 0 1
		C   -0.571282  -0.427021  -0.002444
		O   -0.567290  -1.603388   0.012729
		C    0.619098   0.408237  -0.010035
		C    1.836710  -0.142016  -0.031718
		H   -1.590032   0.038199  -0.015660
		H    0.490467   1.441438   0.069586
		H    1.968875  -1.296895  -0.052092
		H    2.634366   0.432272   0.345487
*
