! B3LYP cc-pVDZ
!TightSCF
%scf
 ConvForced true
 convergence tight
 MaxIter 500
end
 
%tddft 
 nroots 1
end

# 	4136
* xyz 0 1
		C   -1.292264  -0.391474   0.111038
		O   -2.074522  -0.683654   0.775498
		C   -0.098703   0.470002   0.444002
		C    1.157978   0.008160  -0.149174
		H   -1.040489  -0.708825  -0.874330
		H   -0.180500   1.477078   0.947529
		H    1.254123  -0.986243  -0.934149
		H    2.299672   0.804179  -0.253190
*
