! B3LYP cc-pVDZ
!TightSCF
%scf
 ConvForced true
 convergence tight
 MaxIter 500
end
 
%tddft 
 nroots 1
end

# 	20015
* xyz 0 1
		C   -0.579816  -0.454861   0.020062
		O   -0.621598  -1.705305   0.004228
		C    0.625308   0.496776   0.005251
		C    1.918834  -0.099215  -0.029870
		H   -1.634787  -0.024061  -0.188390
		H    0.551999   1.620440   0.014204
		H    1.915907  -1.242242  -0.038977
		H    2.641058   0.610313   0.215871
*
