! B3LYP cc-pVDZ
!TightSCF
%scf
 ConvForced true
 convergence tight
 MaxIter 500
end
 
%tddft 
 nroots 1
end

# 	32285
* xyz 0 1
		C   -0.561513  -0.456903  -0.009158
		O   -0.625462  -1.639680   0.006083
		C    0.659486   0.398129   0.062725
		C    1.846419  -0.073701  -0.030330
		H   -1.571197   0.028684  -0.228202
		H    0.343051   1.462486  -0.116093
		H    1.981941  -1.176110   0.014683
		H    2.959706   0.526634  -0.048034
*
