! B3LYP cc-pVDZ
!TightSCF
%scf
 ConvForced true
 convergence tight
 MaxIter 500
end
 
%tddft 
 nroots 1
end

# 	11971
* xyz 0 1
		C   -1.214955  -0.269080  -0.017640
		O   -1.649203  -1.065980  -0.800863
		C   -0.009059   0.505357  -0.252400
		C    1.191081   0.016866   0.167509
		H   -1.600012  -0.179313   0.901236
		H   -0.061404   1.364149  -0.727649
		H    1.213828  -0.954606   0.604167
		H    2.118243   0.576653   0.070734
*
