! B3LYP cc-pVDZ
!TightSCF
%scf
 ConvForced true
 convergence tight
 MaxIter 500
end
 
%tddft 
 nroots 1
end

# 	30682
* xyz 0 1
		C   -0.590178  -0.446292  -0.021202
		O   -0.609468  -1.642227   0.015881
		C    0.652699   0.395671  -0.007026
		C    1.875633  -0.104427   0.001927
		H   -1.681484   0.159611  -0.042268
		H    0.530680   1.446885   0.182754
		H    2.127576  -1.092265  -0.061104
		H    2.578049   0.666388  -0.008870
*
