! B3LYP cc-pVDZ
!TightSCF
%scf
 ConvForced true
 convergence tight
 MaxIter 500
end
 
%tddft 
 nroots 1
end

# 	31306
* xyz 0 1
		C   -0.593570  -0.455683   0.035432
		O   -0.541095  -1.620410  -0.022352
		C    0.638149   0.485421  -0.011889
		C    1.794474  -0.214087   0.002426
		H   -1.390024   0.271446   0.139717
		H    0.406672   1.527966  -0.262141
		H    1.880877  -1.163259   0.011483
		H    2.741055   0.559310   0.150423
*
