! B3LYP cc-pVDZ
!TightSCF
%scf
 ConvForced true
 convergence tight
 MaxIter 500
end
 
%tddft 
 nroots 1
end

# 	19800
* xyz 0 1
		C   -1.267489  -0.302803   0.069389
		O   -1.191630  -1.540188   0.020662
		C   -0.015450   0.600507   0.002435
		C    1.235626  -0.037144   0.018177
		H   -2.010343   0.091551  -0.106533
		H   -0.190278   1.753487  -0.064809
		H    1.140680  -1.207882  -0.235919
		H    2.236636   0.708133   0.339315
*
