! B3LYP cc-pVDZ
!TightSCF
%scf
 ConvForced true
 convergence tight
 MaxIter 500
end
 
%tddft 
 nroots 1
end

# 	30540
* xyz 0 1
		C   -0.532494  -0.429072   0.041287
		O   -0.594880  -1.682002  -0.033136
		C    0.628835   0.473103  -0.076656
		C    1.834357  -0.106108   0.049394
		H   -1.603815   0.118473   0.368143
		H    0.433608   1.469862  -0.069529
		H    1.721731  -1.256895   0.098857
		H    2.844357   0.327302  -0.052006
*
