! B3LYP cc-pVDZ
!TightSCF
%scf
 ConvForced true
 convergence tight
 MaxIter 500
end
 
%tddft 
 nroots 1
end

# 	26409
* xyz 0 1
		C   -0.607396  -0.452392   0.070272
		O   -0.613430  -1.659185  -0.042833
		C    0.611159   0.394687  -0.028376
		C    1.901439  -0.055801  -0.004028
		H   -1.704342   0.095347   0.147310
		H    0.566558   1.498094  -0.269204
		H    2.169024  -1.096336   0.242407
		H    2.955086   0.445874   0.095068
*
