! B3LYP cc-pVDZ
!TightSCF
%scf
 ConvForced true
 convergence tight
 MaxIter 500
end
 
%tddft 
 nroots 1
end

# 	25231
* xyz 0 1
		C   -0.590481  -0.411016  -0.049686
		O   -0.601354  -1.669501   0.002598
		C    0.634940   0.361387   0.034126
		C    1.869384  -0.068431   0.024498
		H   -1.518102   0.200174   0.188532
		H    0.527397   1.528051  -0.083471
		H    1.882771  -1.180751   0.053710
		H    2.820544   0.608351  -0.331139
*
