! B3LYP cc-pVDZ
!TightSCF
%scf
 ConvForced true
 convergence tight
 MaxIter 500
end
 
%tddft 
 nroots 1
end

# 	799
* xyz 0 1
		C   -1.152479  -0.469564   0.068436
		O   -2.289223  -0.206317   0.487076
		C    0.055147   0.173962   0.455756
		C    1.146962   0.148598  -0.314390
		H   -1.082815  -0.894818  -0.906728
		H   -0.085254   0.795334   1.353161
		H    1.292288  -0.528623  -1.087074
		H    2.117555   0.928247  -0.048200
*
