! B3LYP cc-pVDZ
!TightSCF
%scf
 ConvForced true
 convergence tight
 MaxIter 500
end
 
%tddft 
 nroots 1
end

# 	3315
* xyz 0 1
		C   -1.108274  -0.357406  -0.017386
		O   -2.037087  -0.650534  -0.872075
		C    0.007013   0.401107  -0.287908
		C    1.160118   0.073187   0.243830
		H   -1.288799  -0.809835   1.002575
		H   -0.059845   1.349425  -1.152482
		H    1.344167  -0.707264   0.907062
		H    2.027284   0.620279   0.187417
*
