! B3LYP cc-pVDZ
!TightSCF
%scf
 ConvForced true
 convergence tight
 MaxIter 500
end
 
%tddft 
 nroots 1
end

# 	16003
* xyz 0 1
		C   -1.185313  -0.267341   0.037973
		O   -1.198994  -1.428513  -0.247397
		C    0.022231   0.547091  -0.063865
		C    1.210176  -0.051491   0.077356
		H   -2.137189   0.138877   0.349073
		H   -0.115211   1.676940  -0.291224
		H    1.393999  -1.085358   0.097280
		H    2.048362   0.430871   0.008905
*
