! B3LYP cc-pVDZ
!TightSCF
%scf
 ConvForced true
 convergence tight
 MaxIter 500
end
 
%tddft 
 nroots 1
end

# 	2525
* xyz 0 1
		C   -1.177150  -0.405862  -0.047623
		O   -1.553225  -1.335754   0.481408
		C   -0.031138   0.466773   0.267331
		C    1.192082   0.027630  -0.004592
		H   -1.862880   0.126933  -0.907362
		H   -0.250380   1.340945   0.712785
		H    1.509839  -0.841550  -0.598316
		H    2.129407   0.625383   0.074143
*
