! B3LYP cc-pVDZ
!TightSCF
%scf
 ConvForced true
 convergence tight
 MaxIter 500
end
 
%tddft 
 nroots 1
end

# 	7276
* xyz 0 1
		C   -1.147633  -0.428230   0.061052
		O   -1.959203  -0.636885   1.015210
		C    0.093019   0.388848   0.262347
		C    1.182330   0.140311  -0.358665
		H   -1.377336  -0.766456  -0.997371
		H    0.165760   1.331024   1.059444
		H    1.122944  -0.701091  -0.749899
		H    1.897492   0.662379  -0.276194
*
