! B3LYP cc-pVDZ
!TightSCF
%scf
 ConvForced true
 convergence tight
 MaxIter 500
end
 
%tddft 
 nroots 1
end

# 	30231
* xyz 0 1
		C   -0.588293  -0.434677  -0.032627
		O   -0.611715  -1.660932   0.028675
		C    0.637752   0.400503   0.010302
		C    1.880455  -0.076729  -0.006902
		H   -1.419276   0.099395  -0.127747
		H    0.555617   1.440102   0.150582
		H    1.872117  -1.246373  -0.227412
		H    2.685203   0.615142   0.116104
*
