! B3LYP cc-pVDZ
!TightSCF
%scf
 ConvForced true
 convergence tight
 MaxIter 500
end
 
%tddft 
 nroots 1
end

# 	17400
* xyz 0 1
		C   -1.255379  -0.259548   0.031807
		O   -1.198510  -1.497504   0.006263
		C   -0.116602   0.501465  -0.024201
		C    1.263848  -0.017643  -0.011744
		H   -2.037335   0.344603  -0.044002
		H   -0.132301   1.532644  -0.017002
		H    1.424917  -1.109277   0.003414
		H    2.062777   0.468019   0.092661
*
