! B3LYP cc-pVDZ
!TightSCF
%scf
 ConvForced true
 convergence tight
 MaxIter 500
end
 
%tddft 
 nroots 1
end

# 	26751
* xyz 0 1
		C   -0.523003  -0.447481   0.008180
		O   -0.592288  -1.635852   0.003597
		C    0.617132   0.399241  -0.015448
		C    1.807825  -0.111014   0.008014
		H   -1.401706   0.266801  -0.018926
		H    0.445004   1.688270  -0.001149
		H    1.817689  -1.303155  -0.160032
		H    2.867550   0.474582   0.123282
*
