! B3LYP cc-pVDZ
!TightSCF
%scf
 ConvForced true
 convergence tight
 MaxIter 500
end
 
%tddft 
 nroots 1
end

# 	19497
* xyz 0 1
		C   -1.129877  -0.367585   0.086156
		O   -2.049107  -0.485349   0.870371
		C    0.032852   0.330892   0.320194
		C    1.245171   0.015141  -0.227611
		H   -1.349773  -0.772913  -1.052695
		H    0.050909   1.307356   1.064388
		H    1.277582  -0.685800  -0.904997
		H    1.916425   0.657162  -0.122202
*
