! B3LYP cc-pVDZ
!TightSCF
%scf
 ConvForced true
 convergence tight
 MaxIter 500
end
 
%tddft 
 nroots 1
end

# 	31227
* xyz 0 1
		C   -0.524222  -0.407383  -0.009970
		O   -0.601657  -1.638667  -0.005720
		C    0.630328   0.366954   0.028496
		C    1.826904  -0.131562   0.017369
		H   -1.354094   0.304492   0.062991
		H    0.410774   1.500207  -0.211127
		H    1.869547  -1.189116  -0.066876
		H    2.572251   0.716051  -0.138373
*
