! B3LYP cc-pVDZ
!TightSCF
%scf
 ConvForced true
 convergence tight
 MaxIter 500
end
 
%tddft 
 nroots 1
end

# 	814
* xyz 0 1
		C   -1.253447  -0.329480   0.075581
		O   -1.998023  -0.605141   0.939387
		C    0.030513   0.446988   0.278553
		C    1.161200   0.117704  -0.258279
		H   -1.292103  -0.814874  -0.962109
		H    0.016959   1.267945   0.957958
		H    1.227596  -0.733474  -0.962627
		H    2.070503   0.692891  -0.101198
*
