! B3LYP cc-pVDZ
!TightSCF
%scf
 ConvForced true
 convergence tight
 MaxIter 500
end
 
%tddft 
 nroots 1
end

# 	7402
* xyz 0 1
		C   -1.215229  -0.375518   0.023176
		O   -1.247092  -1.573976  -0.212987
		C    0.096285   0.441969  -0.057192
		C    1.298474   0.006510   0.045311
		H   -2.184671   0.368106   0.331524
		H   -0.158056   1.445632  -0.431139
		H    1.388303  -0.952399   0.332787
		H    2.047888   0.671529  -0.102770
*
