! B3LYP cc-pVDZ
!TightSCF
%scf
 ConvForced true
 convergence tight
 MaxIter 500
end
 
%tddft 
 nroots 1
end

# 	10120
* xyz 0 1
		C   -1.144491  -0.298556  -0.075608
		O   -1.183735  -1.523918   0.082756
		C   -0.006102   0.572233   0.078065
		C    1.204473  -0.067679   0.004499
		H   -2.133914   0.255018  -0.135361
		H   -0.137312   1.561877   0.269516
		H    1.274678  -1.078578  -0.155811
		H    2.099949   0.576511   0.006266
*
