! B3LYP cc-pVDZ
!TightSCF
%scf
 ConvForced true
 convergence tight
 MaxIter 500
end
 
%tddft 
 nroots 1
end

# 	9523
* xyz 0 1
		C   -1.166018  -0.340427  -0.026900
		O   -1.274614  -1.484513  -0.470918
		C   -0.018434   0.484123  -0.136120
		C    1.249587  -0.098131   0.024482
		H   -1.983049   0.136786   0.561413
		H   -0.142700   1.588899  -0.481724
		H    1.359341  -1.057522   0.432456
		H    1.955366   0.745192   0.071633
*
