! B3LYP cc-pVDZ
!TightSCF
%scf
 ConvForced true
 convergence tight
 MaxIter 500
end
 
%tddft 
 nroots 1
end

# 	9433
* xyz 0 1
		C   -1.204967  -0.319682  -0.100140
		O   -1.672881  -0.991219  -0.938574
		C    0.034721   0.470134  -0.262234
		C    1.195822   0.047428   0.233531
		H   -1.625605  -0.320821   0.901666
		H   -0.057640   1.439563  -0.698779
		H    1.182106  -1.039941   0.682761
		H    2.173692   0.728103   0.199137
*
