! B3LYP cc-pVDZ
!TightSCF
%scf
 ConvForced true
 convergence tight
 MaxIter 500
end
 
%tddft 
 nroots 1
end

# 	31014
* xyz 0 1
		C   -0.572182  -0.407111  -0.019222
		O   -0.570173  -1.618084   0.016561
		C    0.606985   0.396933   0.023235
		C    1.810401  -0.140115  -0.002769
		H   -1.466222  -0.002574  -0.262823
		H    0.594536   1.545461   0.217422
		H    2.148698  -1.177095  -0.005303
		H    2.760321   0.376356  -0.225494
*
