! B3LYP cc-pVDZ
!TightSCF
%scf
 ConvForced true
 convergence tight
 MaxIter 500
end
 
%tddft 
 nroots 1
end

# 	24519
* xyz 0 1
		C   -0.562146  -0.472548  -0.056176
		O   -0.640162  -1.646796   0.023537
		C    0.646866   0.392993   0.098527
		C    1.878252  -0.062251  -0.038845
		H   -1.461068   0.240394  -0.215137
		H    0.519468   1.365540  -0.083657
		H    2.042921  -1.010849   0.006326
		H    2.620098   0.481557  -0.129667
*
