! B3LYP cc-pVDZ
!TightSCF
%scf
 ConvForced true
 convergence tight
 MaxIter 500
end
 
%tddft 
 nroots 1
end

# 	11194
* xyz 0 1
		C   -1.189786  -0.312316   0.086604
		O   -1.989872  -0.611946   0.901269
		C   -0.001840   0.445677   0.357072
		C    1.184067   0.078611  -0.295741
		H   -1.153683  -0.711608  -0.943408
		H    0.014569   1.154222   1.061180
		H    1.118285  -0.647971  -1.084282
		H    2.018660   0.627602  -0.102967
*
