! B3LYP cc-pVDZ
!TightSCF
%scf
 ConvForced true
 convergence tight
 MaxIter 500
end
 
%tddft 
 nroots 1
end

# 	22058
* xyz 0 1
		C   -0.568583  -0.411547   0.018935
		O   -0.590566  -1.659025  -0.011396
		C    0.592733   0.401425  -0.035991
		C    1.884044  -0.112836   0.011022
		H   -1.683768  -0.026661   0.111323
		H    0.733508   1.615974   0.046997
		H    1.857204  -1.215074   0.087466
		H    2.739034   0.639931   0.006150
*
