! B3LYP cc-pVDZ
!TightSCF
%scf
 ConvForced true
 convergence tight
 MaxIter 500
end
 
%tddft 
 nroots 1
end

# 	9917
* xyz 0 1
		C   -1.249826  -0.372359   0.008681
		O   -2.195476  -0.312909  -0.718317
		C    0.100591   0.317534  -0.344920
		C    1.147678   0.219285   0.266222
		H   -1.252420  -1.198719   0.888978
		H    0.069129   1.152739  -1.136547
		H    1.321528  -0.689801   0.984438
		H    2.059102   0.859684   0.014201
*
