! B3LYP cc-pVDZ
!TightSCF
%scf
 ConvForced true
 convergence tight
 MaxIter 500
end
 
%tddft 
 nroots 1
end

# 	11605
* xyz 0 1
		C   -1.238168  -0.338396   0.047005
		O   -1.332953  -1.316274   0.643651
		C    0.044858   0.501116   0.075336
		C    1.222182  -0.020831  -0.158211
		H   -1.986089  -0.001866  -0.734299
		H   -0.054629   1.546170   0.603078
		H    1.353592  -1.075698  -0.315752
		H    2.016165   0.688008  -0.136547
*
