! B3LYP cc-pVDZ
!TightSCF
%scf
 ConvForced true
 convergence tight
 MaxIter 500
end
 
%tddft 
 nroots 1
end

# 	6700
* xyz 0 1
		C   -1.124519  -0.332641   0.017152
		O   -1.234388  -1.595000   0.035198
		C   -0.005355   0.500757  -0.006058
		C    1.270443  -0.014659  -0.030787
		H   -2.058449   0.289016  -0.233537
		H   -0.247316   1.600785   0.062938
		H    1.363491  -1.109703  -0.130347
		H    2.001713   0.635299   0.241340
*
