! B3LYP cc-pVDZ
!TightSCF
%scf
 ConvForced true
 convergence tight
 MaxIter 500
end
 
%tddft 
 nroots 1
end

# 	12383
* xyz 0 1
		C   -1.151986  -0.354527  -0.040343
		O   -1.240969  -1.445072  -0.423135
		C    0.031385   0.510852  -0.135401
		C    1.223053  -0.055857   0.071598
		H   -2.136144   0.194408   0.444965
		H   -0.194551   1.687377  -0.207278
		H    1.387137  -1.083555   0.312649
		H    2.072459   0.556473  -0.071178
*
