! B3LYP cc-pVDZ
!TightSCF
%scf
 ConvForced true
 convergence tight
 MaxIter 500
end
 
%tddft 
 nroots 1
end

# 	30802
* xyz 0 1
		C   -0.659839  -0.432027   0.037712
		O   -0.557613  -1.653146  -0.007127
		C    0.687413   0.443068   0.014758
		C    1.830869  -0.118715   0.007409
		H   -1.668006   0.015088  -0.332390
		H    0.539992   1.502550  -0.032435
		H    2.023916  -1.229885  -0.092992
		H    2.784843   0.489219  -0.145831
*
