! B3LYP cc-pVDZ
!TightSCF
%scf
 ConvForced true
 convergence tight
 MaxIter 500
end
 
%tddft 
 nroots 1
end

# 	31773
* xyz 0 1
		C   -0.588599  -0.430366   0.036061
		O   -0.559772  -1.608414  -0.020690
		C    0.641505   0.383442   0.003639
		C    1.809411  -0.129229   0.036774
		H   -1.521726   0.039546  -0.053999
		H    0.444541   1.615106  -0.238227
		H    1.784385  -1.227073  -0.132478
		H    2.944102   0.441704  -0.175539
*
