! B3LYP cc-pVDZ
!TightSCF
%scf
 ConvForced true
 convergence tight
 MaxIter 500
end
 
%tddft 
 nroots 1
end

# 	7223
* xyz 0 1
		C   -1.207487  -0.335761   0.001985
		O   -1.272036  -1.467000  -0.386444
		C    0.023198   0.639717  -0.064520
		C    1.236064  -0.054390   0.058812
		H   -2.097225   0.098070   0.529147
		H   -0.019633   1.736218  -0.444356
		H    1.134268  -1.169449   0.165116
		H    2.225441   0.572567   0.196973
*
