! B3LYP cc-pVDZ
!TightSCF
%scf
 ConvForced true
 convergence tight
 MaxIter 500
end
 
%tddft 
 nroots 1
end

# 	23587
* xyz 0 1
		C   -0.560108  -0.481600   0.014351
		O   -0.653669  -1.642870  -0.002092
		C    0.634659   0.364707  -0.051063
		C    1.921972  -0.046429   0.027546
		H   -1.403546   0.317080   0.047596
		H    0.373695   1.428039   0.173154
		H    1.975692  -1.090953  -0.045867
		H    2.585303   0.620875  -0.026654
*
