! B3LYP cc-pVDZ
!TightSCF
%scf
 ConvForced true
 convergence tight
 MaxIter 500
end
 
%tddft 
 nroots 1
end

# 	26932
* xyz 0 1
		C   -0.546947  -0.441490  -0.083136
		O   -0.629948  -1.686885   0.049565
		C    0.638762   0.431831   0.058829
		C    1.852592  -0.054281  -0.049865
		H   -1.410335   0.256958  -0.138643
		H    0.411226   1.324663   0.197411
		H    1.927508  -1.133692  -0.116061
		H    2.837629   0.332587   0.177257
*
