! B3LYP cc-pVDZ
!TightSCF
%scf
 ConvForced true
 convergence tight
 MaxIter 500
end
 
%tddft 
 nroots 1
end

# 	17844
* xyz 0 1
		C   -1.208493  -0.331520   0.033311
		O   -1.312241  -1.408960  -0.462629
		C    0.021223   0.637412  -0.063174
		C    1.192302   0.000541   0.074121
		H   -2.027356  -0.026975   0.608123
		H   -0.041924   1.660890  -0.564983
		H    1.256582  -1.019433   0.322303
		H    2.146159   0.485285   0.097853
*
