! B3LYP cc-pVDZ
!TightSCF
%scf
 ConvForced true
 convergence tight
 MaxIter 500
end
 
%tddft 
 nroots 1
end

# 	3501
* xyz 0 1
		C   -1.203616  -0.358085  -0.057235
		O   -1.199668  -1.511715   0.148954
		C    0.016962   0.489999   0.004177
		C    1.233933  -0.020155  -0.026603
		H   -2.226236   0.162010  -0.216434
		H   -0.170862   1.566999   0.339873
		H    1.353657  -0.993089  -0.148580
		H    2.185652   0.592550  -0.049891
*
