! B3LYP cc-pVDZ
!TightSCF
%scf
 ConvForced true
 convergence tight
 MaxIter 500
end
 
%tddft 
 nroots 1
end

# 	32494
* xyz 0 1
		C   -0.589653  -0.398823  -0.025972
		O   -0.577383  -1.647726   0.014701
		C    0.622974   0.371648   0.042929
		C    1.862723  -0.084331  -0.022324
		H   -1.557335   0.020702  -0.137574
		H    0.498279   1.560857   0.005978
		H    1.786469  -1.217581  -0.017070
		H    2.791884   0.345959  -0.018837
*
