! B3LYP cc-pVDZ
!TightSCF
%scf
 ConvForced true
 convergence tight
 MaxIter 500
end
 
%tddft 
 nroots 1
end

# 	10035
* xyz 0 1
		C   -1.238230  -0.321795   0.041630
		O   -2.012468  -0.612298   0.887780
		C    0.001385   0.444625   0.318019
		C    1.156635   0.102646  -0.201988
		H   -1.301562  -0.645038  -0.888404
		H   -0.024446   1.297249   1.076709
		H    1.259822  -0.823215  -0.865785
		H    2.152216   0.554607  -0.328796
*
