! B3LYP cc-pVDZ
!TightSCF
%scf
 ConvForced true
 convergence tight
 MaxIter 500
end
 
%tddft 
 nroots 1
end

# 	24878
* xyz 0 1
		C   -0.593879  -0.421620   0.013424
		O   -0.602253  -1.684186  -0.019161
		C    0.595287   0.404090   0.013104
		C    1.914414  -0.077263  -0.029960
		H   -1.482962   0.346222   0.191955
		H    0.398705   1.472640  -0.247202
		H    2.017245  -1.203810   0.231335
		H    2.739629   0.525701   0.160489
*
