! B3LYP cc-pVDZ
!TightSCF
%scf
 ConvForced true
 convergence tight
 MaxIter 500
end
 
%tddft 
 nroots 1
end

# 	5308
* xyz 0 1
		C   -1.172435  -0.266962   0.047658
		O   -1.481601  -1.191620   0.828301
		C    0.052605   0.546785   0.133369
		C    1.163085  -0.021195  -0.122898
		H   -1.767529  -0.262444  -0.991116
		H   -0.121096   1.620914   0.592302
		H    1.286214  -0.983199  -0.484673
		H    2.102243   0.540937   0.013652
*
