! B3LYP cc-pVDZ
!TightSCF
%scf
 ConvForced true
 convergence tight
 MaxIter 500
end
 
%tddft 
 nroots 1
end

# 	23373
* xyz 0 1
		C   -0.624693  -0.420158  -0.040466
		O   -0.565767  -1.709817   0.020602
		C    0.641755   0.480655   0.070580
		C    1.874531  -0.095703  -0.033634
		H   -1.590950   0.320794  -0.293284
		H    0.454842   1.457092   0.124083
		H    1.852999  -1.298545   0.115997
		H    2.673474   0.342928  -0.236029
*
