! B3LYP cc-pVDZ
!TightSCF
%scf
 ConvForced true
 convergence tight
 MaxIter 500
end
 
%tddft 
 nroots 1
end

# 	21049
* xyz 0 1
		C   -0.604635  -0.455015  -0.050507
		O   -0.611083  -1.647880   0.017316
		C    0.668278   0.379233   0.041467
		C    1.894189  -0.062244  -0.019719
		H   -1.540767   0.201545   0.067289
		H    0.506393   1.496298  -0.026071
		H    1.896995  -1.328809   0.013596
		H    2.496486   0.675625   0.011874
*
