! B3LYP cc-pVDZ
!TightSCF
%scf
 ConvForced true
 convergence tight
 MaxIter 500
end
 
%tddft 
 nroots 1
end

# 	30880
* xyz 0 1
		C   -0.589303  -0.410791   0.025462
		O   -0.517547  -1.655203  -0.034885
		C    0.593278   0.491422  -0.023014
		C    1.807421  -0.187503   0.021319
		H   -1.513987   0.293511   0.333024
		H    0.534063   1.576102  -0.214196
		H    1.854104  -1.407458   0.256056
		H    2.731628   0.365297  -0.129752
*
