! B3LYP cc-pVDZ
!TightSCF
%scf
 ConvForced true
 convergence tight
 MaxIter 500
end
 
%tddft 
 nroots 1
end

# 	4747
* xyz 0 1
		C   -1.238957  -0.327880  -0.025886
		O   -1.544964  -1.179459  -0.834492
		C    0.043144   0.473374  -0.161391
		C    1.206903   0.021133   0.226347
		H   -1.827681  -0.181918   0.913013
		H   -0.075824   1.513448  -0.713923
		H    1.206515  -0.973209   0.621128
		H    2.195484   0.571078  -0.041777
*
