! B3LYP cc-pVDZ
!TightSCF
%scf
 ConvForced true
 convergence tight
 MaxIter 500
end
 
%tddft 
 nroots 1
end

# 	8012
* xyz 0 1
		C   -1.192237  -0.356733   0.095308
		O   -1.611692  -1.211588   0.891448
		C    0.004203   0.530627   0.197628
		C    1.198268   0.034495  -0.198726
		H   -1.708100  -0.134066  -0.803126
		H   -0.182688   1.534001   0.441334
		H    1.317339  -1.056900  -0.500827
		H    2.115953   0.696249  -0.176998
*
