! B3LYP cc-pVDZ
!TightSCF
%scf
 ConvForced true
 convergence tight
 MaxIter 500
end
 
%tddft 
 nroots 1
end

# 	1136
* xyz 0 1
		C   -1.210968  -0.304105   0.062328
		O   -2.071886  -0.533799   0.903359
		C    0.024484   0.450151   0.314121
		C    1.151708   0.105774  -0.266435
		H   -1.164144  -0.698125  -0.917975
		H   -0.185636   1.038922   1.091843
		H    1.171837  -0.636561  -1.048443
		H    2.267777   0.632169  -0.136259
*
