! B3LYP cc-pVDZ
!TightSCF
%scf
 ConvForced true
 convergence tight
 MaxIter 500
end
 
%tddft 
 nroots 1
end

# 	23500
* xyz 0 1
		C   -0.614613  -0.463048   0.075234
		O   -0.586583  -1.685004  -0.042485
		C    0.667548   0.475926  -0.063305
		C    1.853533  -0.090092   0.023625
		H   -1.578001   0.160282   0.183498
		H    0.574046   1.572519  -0.143634
		H    1.852869  -1.308547   0.169652
		H    2.743831   0.478216   0.030487
*
