! B3LYP cc-pVDZ
!TightSCF
%scf
 ConvForced true
 convergence tight
 MaxIter 500
end
 
%tddft 
 nroots 1
end

# 	29517
* xyz 0 1
		C   -0.593240  -0.464796   0.010485
		O   -0.563583  -1.606750  -0.008558
		C    0.620774   0.459519   0.037401
		C    1.834778  -0.169017  -0.044143
		H   -1.415479   0.117140  -0.097973
		H    0.258430   1.469373  -0.092799
		H    1.903025  -1.175337   0.255825
		H    2.927033   0.424599   0.020962
*
