! B3LYP cc-pVDZ
!TightSCF
%scf
 ConvForced true
 convergence tight
 MaxIter 500
end
 
%tddft 
 nroots 1
end

# 	23393
* xyz 0 1
		C   -0.552762  -0.383797  -0.027688
		O   -0.603810  -1.658753   0.007466
		C    0.629258   0.405065   0.033228
		C    1.854720  -0.134975  -0.015822
		H   -1.606638   0.077480   0.045098
		H    0.528167   1.351333  -0.084097
		H    2.178741  -1.085654   0.017826
		H    2.445374   0.610134   0.022132
*
