! B3LYP cc-pVDZ
!TightSCF
%scf
 ConvForced true
 convergence tight
 MaxIter 500
end
 
%tddft 
 nroots 1
end

# 	16914
* xyz 0 1
		C   -1.201336  -0.269019   0.051866
		O   -1.932153  -0.792436   0.891717
		C    0.028135   0.470977   0.314103
		C    1.202424   0.206232  -0.212353
		H   -1.406817  -0.548388  -1.007177
		H   -0.201031   1.168089   0.850174
		H    1.358255  -0.874948  -0.794234
		H    2.151503   0.632714  -0.076522
*
