! B3LYP cc-pVDZ
!TightSCF
%scf
 ConvForced true
 convergence tight
 MaxIter 500
end
 
%tddft 
 nroots 1
end

# 	15561
* xyz 0 1
		C   -1.210626  -0.294269  -0.016427
		O   -1.221209  -1.551624  -0.046193
		C    0.017177   0.425814  -0.099948
		C    1.222358  -0.040119   0.017322
		H   -2.256265   0.187834   0.145251
		H   -0.026699   1.520950   0.295542
		H    1.450291  -1.057378  -0.377006
		H    2.006988   0.727179   0.114001
*
