! B3LYP cc-pVDZ
!TightSCF
%scf
 ConvForced true
 convergence tight
 MaxIter 500
end
 
%tddft 
 nroots 1
end

# 	6078
* xyz 0 1
		C   -1.186504  -0.332832  -0.112037
		O   -2.118790  -0.359557  -0.779733
		C    0.084719   0.386622  -0.425702
		C    1.193660   0.118265   0.281715
		H   -1.156976  -0.944564   0.906892
		H    0.010653   1.030232  -1.163414
		H    1.092569  -0.596199   1.079783
		H    2.014602   0.683860   0.196566
*
