! B3LYP cc-pVDZ
!TightSCF
%scf
 ConvForced true
 convergence tight
 MaxIter 500
end
 
%tddft 
 nroots 1
end

# 	1130
* xyz 0 1
		C   -1.186421  -0.297298   0.045892
		O   -1.633668  -1.036648   0.905875
		C    0.023885   0.482476   0.223254
		C    1.147817   0.041602  -0.171425
		H   -1.553230  -0.207096  -1.014672
		H   -0.184822   1.355903   0.859201
		H    1.224072  -0.822184  -0.783719
		H    2.187054   0.482919  -0.096827
*
