! B3LYP cc-pVDZ
!TightSCF
%scf
 ConvForced true
 convergence tight
 MaxIter 500
end
 
%tddft 
 nroots 1
end

# 	32130
* xyz 0 1
		C   -0.625653  -0.438491   0.056542
		O   -0.566538  -1.619622  -0.036176
		C    0.611359   0.417889  -0.028105
		C    1.882652  -0.138251   0.008690
		H   -1.613871   0.048215   0.014751
		H    0.466344   1.488592  -0.017983
		H    2.069654  -1.179856   0.344584
		H    2.749322   0.502811  -0.228597
*
