! B3LYP cc-pVDZ
!TightSCF
%scf
 ConvForced true
 convergence tight
 MaxIter 500
end
 
%tddft 
 nroots 1
end

# 	15119
* xyz 0 1
		C   -1.157358  -0.294803   0.067112
		O   -2.128887  -0.119137   0.909119
		C    0.134019   0.357338   0.376505
		C    1.238467   0.028871  -0.292248
		H   -1.298737  -0.977614  -0.876100
		H    0.063696   0.850157   1.225508
		H    1.262611  -0.666685  -1.113484
		H    1.904097   0.835383  -0.292830
*
