! B3LYP cc-pVDZ
!TightSCF
%scf
 ConvForced true
 convergence tight
 MaxIter 500
end
 
%tddft 
 nroots 1
end

# 	20210
* xyz 0 1
		C   -0.562002  -0.415556   0.023399
		O   -0.566737  -1.671949  -0.014104
		C    0.630778   0.441935  -0.028115
		C    1.799688  -0.137256   0.004107
		H   -1.573614   0.276682   0.091130
		H    0.605964   1.599787   0.003340
		H    1.932212  -1.047957   0.116979
		H    2.741741   0.307728   0.017380
*
