! B3LYP cc-pVDZ
!TightSCF
%scf
 ConvForced true
 convergence tight
 MaxIter 500
end
 
%tddft 
 nroots 1
end

# 	22615
* xyz 0 1
		C   -0.569470  -0.410907  -0.006958
		O   -0.580848  -1.654152   0.001864
		C    0.631694   0.422219   0.004616
		C    1.844012  -0.126285  -0.003162
		H   -1.435195   0.258586   0.086859
		H    0.291628   1.391348  -0.104740
		H    1.879666  -1.173830  -0.074445
		H    2.692579   0.417101   0.130720
*
