! B3LYP cc-pVDZ
!TightSCF
%scf
 ConvForced true
 convergence tight
 MaxIter 500
end
 
%tddft 
 nroots 1
end

# 	26664
* xyz 0 1
		C   -0.645924  -0.402805  -0.079348
		O   -0.551874  -1.627126   0.043785
		C    0.644555   0.390401   0.036021
		C    1.843311  -0.144727  -0.026751
		H   -1.582165   0.139529   0.039170
		H    0.438001   1.433691   0.100701
		H    2.167038  -1.137300  -0.224849
		H    2.728497   0.556755   0.246269
*
