! B3LYP cc-pVDZ
!TightSCF
%scf
 ConvForced true
 convergence tight
 MaxIter 500
end
 
%tddft 
 nroots 1
end

# 	12291
* xyz 0 1
		C   -1.242022  -0.302725   0.113313
		O   -1.505463  -1.109302   0.783385
		C   -0.003520   0.515084   0.135182
		C    1.191313   0.022600  -0.151637
		H   -1.839382  -0.101463  -0.864789
		H   -0.121254   1.550552   0.509503
		H    1.344404  -1.099220  -0.465807
		H    2.175136   0.577040  -0.015806
*
