! B3LYP cc-pVDZ
!TightSCF
%scf
 ConvForced true
 convergence tight
 MaxIter 500
end
 
%tddft 
 nroots 1
end

# 	13737
* xyz 0 1
		C   -1.184279  -0.302766  -0.022960
		O   -2.033171  -0.563323  -0.893761
		C    0.126968   0.423282  -0.438891
		C    1.172026   0.210326   0.335005
		H   -1.358683  -0.658281   1.116392
		H    0.084994   1.048579  -1.147995
		H    1.170175  -0.769979   1.020986
		H    2.060186   0.599762   0.047755
*
