! B3LYP cc-pVDZ
!TightSCF
%scf
 ConvForced true
 convergence tight
 MaxIter 500
end
 
%tddft 
 nroots 1
end

# 	10464
* xyz 0 1
		C   -1.169706  -0.296222  -0.041885
		O   -1.370096  -1.353502  -0.554305
		C    0.035155   0.488351  -0.168292
		C    1.220782   0.019413   0.084922
		H   -1.918357   0.113607   0.700629
		H   -0.122688   1.490089  -0.372524
		H    1.240884  -0.974212   0.318092
		H    2.107738   0.533718   0.025184
*
