! B3LYP cc-pVDZ
!TightSCF
%scf
 ConvForced true
 convergence tight
 MaxIter 500
end
 
%tddft 
 nroots 1
end

# 	27663
* xyz 0 1
		C   -0.588421  -0.411265  -0.014656
		O   -0.609671  -1.638093  -0.005013
		C    0.628455   0.333387   0.032459
		C    1.882539  -0.082014  -0.007251
		H   -1.552648   0.093172   0.006109
		H    0.523270   1.523306  -0.039689
		H    2.077222  -1.159615   0.197655
		H    2.698502   0.709655  -0.227051
*
