! B3LYP cc-pVDZ
!TightSCF
%scf
 ConvForced true
 convergence tight
 MaxIter 500
end
 
%tddft 
 nroots 1
end

# 	23052
* xyz 0 1
		C   -0.580078  -0.429714  -0.052420
		O   -0.592300  -1.670507   0.027082
		C    0.588575   0.446409   0.035914
		C    1.883321  -0.115737  -0.006527
		H   -1.557829   0.083300  -0.057905
		H    0.568393   1.537290   0.074635
		H    1.989466  -1.182351  -0.140733
		H    2.832665   0.499848  -0.026051
*
