! B3LYP cc-pVDZ
!TightSCF
%scf
 ConvForced true
 convergence tight
 MaxIter 500
end
 
%tddft 
 nroots 1
end

# 	4996
* xyz 0 1
		C   -1.231386  -0.349966   0.005524
		O   -2.002053  -0.680897   0.945656
		C    0.065063   0.407492   0.262274
		C    1.204969  -0.006759  -0.246463
		H   -1.474214  -0.596106  -0.995865
		H    0.017386   1.183675   0.991166
		H    1.458216  -0.578600  -0.725375
		H    1.967551   0.579833  -0.214047
*
