! B3LYP cc-pVDZ
!TightSCF
%scf
 ConvForced true
 convergence tight
 MaxIter 500
end
 
%tddft 
 nroots 1
end

# 	28983
* xyz 0 1
		C   -0.657426  -0.426753   0.035350
		O   -0.534317  -1.627379  -0.013595
		C    0.607365   0.414573  -0.043851
		C    1.872583  -0.123600   0.019993
		H   -1.660344   0.041422   0.105977
		H    0.616986   1.500379  -0.076378
		H    1.827804  -1.152040  -0.102761
		H    2.902452   0.288737   0.156690
*
