! B3LYP cc-pVDZ
!TightSCF
%scf
 ConvForced true
 convergence tight
 MaxIter 500
end
 
%tddft 
 nroots 1
end

# 	17119
* xyz 0 1
		C   -1.170069  -0.406467  -0.093193
		O   -2.214905  -0.409413  -0.600334
		C   -0.047236   0.402233  -0.458806
		C    1.114903   0.286201   0.264526
		H   -1.133849  -1.069947   0.926921
		H   -0.007070   0.992159  -1.267262
		H    1.138447  -0.584844   1.303205
		H    2.324065   0.782338  -0.050490
*
