! B3LYP cc-pVDZ
!TightSCF
%scf
 ConvForced true
 convergence tight
 MaxIter 500
end
 
%tddft 
 nroots 1
end

# 	15571
* xyz 0 1
		C   -1.145372  -0.364171  -0.021297
		O   -1.564903  -1.235110  -0.825258
		C    0.028645   0.488560  -0.227115
		C    1.225923   0.031458   0.070888
		H   -1.857513  -0.176052   0.893567
		H   -0.167115   1.577198  -0.199474
		H    1.390433  -1.080252   0.236423
		H    2.096669   0.792913   0.054958
*
