! B3LYP cc-pVDZ
!TightSCF
%scf
 ConvForced true
 convergence tight
 MaxIter 500
end
 
%tddft 
 nroots 1
end

# 	25610
* xyz 0 1
		C   -0.529361  -0.409318  -0.015347
		O   -0.591886  -1.642225   0.008380
		C    0.605312   0.419393   0.022212
		C    1.845157  -0.135573  -0.007283
		H   -1.433157   0.000672  -0.044632
		H    0.448999   1.574914  -0.036185
		H    1.809480  -1.314760  -0.066227
		H    2.664503   0.529507   0.020383
*
