! B3LYP cc-pVDZ
!TightSCF
%scf
 ConvForced true
 convergence tight
 MaxIter 500
end
 
%tddft 
 nroots 1
end

# 	30904
* xyz 0 1
		C   -0.545470  -0.396124  -0.003653
		O   -0.560025  -1.615889  -0.003480
		C    0.651179   0.369525  -0.000336
		C    1.762472  -0.132013   0.009063
		H   -1.562809   0.089738   0.070094
		H    0.497232   1.496354  -0.037603
		H    1.753637  -1.136976   0.015003
		H    2.888538   0.332705  -0.058764
*
