! B3LYP cc-pVDZ
!TightSCF
%scf
 ConvForced true
 convergence tight
 MaxIter 500
end
 
%tddft 
 nroots 1
end

# 	25151
* xyz 0 1
		C   -0.574065  -0.435790  -0.012106
		O   -0.560124  -1.611007   0.006937
		C    0.658781   0.414604   0.008867
		C    1.789687  -0.134202  -0.007008
		H   -1.650890   0.040768  -0.135626
		H    0.572795   1.483294   0.207156
		H    1.829678  -1.298664   0.141743
		H    2.780295   0.432028  -0.203206
*
