! B3LYP cc-pVDZ
!TightSCF
%scf
 ConvForced true
 convergence tight
 MaxIter 500
end
 
%tddft 
 nroots 1
end

# 	12949
* xyz 0 1
		C   -1.202210  -0.237385   0.021529
		O   -1.671411  -0.999334   0.892409
		C   -0.004362   0.514406   0.230242
		C    1.127306  -0.010613  -0.143566
		H   -1.616155  -0.308956  -0.998614
		H   -0.139333   1.444325   0.842612
		H    1.329651  -0.915948  -0.762073
		H    2.149904   0.563572  -0.079640
*
