! B3LYP cc-pVDZ
!TightSCF
%scf
 ConvForced true
 convergence tight
 MaxIter 500
end
 
%tddft 
 nroots 1
end

# 	19962
* xyz 0 1
		C   -1.269653  -0.302220  -0.018022
		O   -1.230317  -1.468365   0.307210
		C    0.020238   0.523905   0.116284
		C    1.181736  -0.005478  -0.052834
		H   -2.130781   0.209308  -0.366240
		H   -0.153357   1.624555   0.279971
		H    1.362428  -1.112025  -0.348230
		H    2.207493   0.467383   0.117267
*
