! B3LYP cc-pVDZ
!TightSCF
%scf
 ConvForced true
 convergence tight
 MaxIter 500
end
 
%tddft 
 nroots 1
end

# 	27148
* xyz 0 1
		C   -0.573006  -0.430790   0.042446
		O   -0.627561  -1.690956  -0.021015
		C    0.644969   0.406450   0.027483
		C    1.843482  -0.071706   0.004758
		H   -1.351205   0.024085  -0.164754
		H    0.695903   1.616391  -0.276950
		H    1.903298  -1.036708  -0.033833
		H    2.906376   0.598655  -0.095424
*
