! B3LYP cc-pVDZ
!TightSCF
%scf
 ConvForced true
 convergence tight
 MaxIter 500
end
 
%tddft 
 nroots 1
end

# 	8363
* xyz 0 1
		C   -1.249704  -0.337310  -0.006625
		O   -1.280551  -1.548442  -0.194941
		C    0.037073   0.453985  -0.105980
		C    1.187156  -0.005925   0.085351
		H   -2.147491   0.223999   0.322181
		H   -0.038205   1.610677  -0.097850
		H    1.535659  -1.026752  -0.131945
		H    1.961604   0.677566   0.223734
*
