! B3LYP cc-pVDZ
!TightSCF
%scf
 ConvForced true
 convergence tight
 MaxIter 500
end
 
%tddft 
 nroots 1
end

# 	8391
* xyz 0 1
		C   -1.198162  -0.236989  -0.013130
		O   -1.847948  -0.715931  -0.938175
		C    0.017181   0.495988  -0.222208
		C    1.187178  -0.004952   0.202721
		H   -1.368665  -0.511219   1.009025
		H    0.026150   1.347612  -1.046327
		H    1.154689  -0.890469   0.950074
		H    2.113359   0.559921   0.068653
*
