! B3LYP cc-pVDZ
!TightSCF
%scf
 ConvForced true
 convergence tight
 MaxIter 500
end
 
%tddft 
 nroots 1
end

# 	17212
* xyz 0 1
		C   -1.215599  -0.332448  -0.023769
		O   -1.582416  -1.145266  -0.844502
		C    0.005807   0.525170  -0.246213
		C    1.225338   0.015514   0.197600
		H   -1.718142  -0.138686   0.903237
		H   -0.027178   1.506197  -0.580330
		H    1.341193  -1.002096   0.593846
		H    2.040521   0.597785   0.027875
*
