! B3LYP cc-pVDZ
!TightSCF
%scf
 ConvForced true
 convergence tight
 MaxIter 500
end
 
%tddft 
 nroots 1
end

# 	25755
* xyz 0 1
		C   -0.634585  -0.444300   0.003146
		O   -0.571304  -1.622865  -0.003225
		C    0.644320   0.371427   0.009633
		C    1.857518  -0.103981  -0.011920
		H   -1.627167   0.205744   0.005861
		H    0.652098   1.477329  -0.062274
		H    2.026545  -1.142205   0.052749
		H    2.733836   0.590226   0.043386
*
