! B3LYP cc-pVDZ
!TightSCF
%scf
 ConvForced true
 convergence tight
 MaxIter 500
end
 
%tddft 
 nroots 1
end

# 	32146
* xyz 0 1
		C   -0.631578  -0.489249  -0.048242
		O   -0.605643  -1.612344   0.023483
		C    0.666075   0.353359   0.063779
		C    1.881547  -0.056954  -0.012144
		H   -1.591317   0.183007  -0.155132
		H    0.595917   1.445255  -0.026344
		H    1.915005  -1.161576  -0.128069
		H    2.824492   0.656617  -0.105663
*
