! B3LYP cc-pVDZ
!TightSCF
%scf
 ConvForced true
 convergence tight
 MaxIter 500
end
 
%tddft 
 nroots 1
end

# 	28268
* xyz 0 1
		C   -0.610480  -0.451414  -0.014214
		O   -0.568010  -1.647625   0.001709
		C    0.636725   0.445839   0.006943
		C    1.837344  -0.135656  -0.034929
		H   -1.491216   0.185968   0.126444
		H    0.551957   1.524859  -0.001910
		H    1.860613  -1.110121   0.188792
		H    2.850656   0.481767   0.166802
*
