! B3LYP cc-pVDZ
!TightSCF
%scf
 ConvForced true
 convergence tight
 MaxIter 500
end
 
%tddft 
 nroots 1
end

# 	17314
* xyz 0 1
		C   -1.259459  -0.410211   0.015181
		O   -2.019079  -0.843420   0.843399
		C   -0.005419   0.398721   0.345734
		C    1.175440   0.130061  -0.163848
		H   -1.236430  -0.542390  -1.068739
		H   -0.033158   1.167894   1.048357
		H    1.237422  -0.579632  -1.039363
		H    2.122658   0.670293   0.007604
*
