! B3LYP cc-pVDZ
!TightSCF
%scf
 ConvForced true
 convergence tight
 MaxIter 500
end
 
%tddft 
 nroots 1
end

# 	15284
* xyz 0 1
		C   -1.157158  -0.352931   0.074395
		O   -1.264333  -1.590363   0.352276
		C    0.016071   0.529032   0.157893
		C    1.274194  -0.032920  -0.096317
		H   -2.034467   0.252783  -0.423836
		H   -0.292619   1.612619   0.232022
		H    1.301871  -1.046793  -0.224598
		H    2.083875   0.604260  -0.043650
*
