! B3LYP cc-pVDZ
!TightSCF
%scf
 ConvForced true
 convergence tight
 MaxIter 500
end
 
%tddft 
 nroots 1
end

# 	25415
* xyz 0 1
		C   -0.602683  -0.412097   0.050774
		O   -0.548683  -1.648044  -0.039259
		C    0.610363   0.419381  -0.059694
		C    1.833550  -0.155193   0.063085
		H   -1.628419   0.092438   0.289633
		H    0.804769   1.711561  -0.185963
		H    1.942435  -1.139611   0.029439
		H    2.665280   0.513042  -0.178497
*
