! B3LYP cc-pVDZ
!TightSCF
%scf
 ConvForced true
 convergence tight
 MaxIter 500
end
 
%tddft 
 nroots 1
end

# 	11217
* xyz 0 1
		C   -1.227184  -0.422175  -0.030972
		O   -2.197031  -0.297542  -0.694633
		C    0.031557   0.519008  -0.344456
		C    1.223964   0.164116   0.275565
		H   -1.224556  -1.051867   0.751633
		H   -0.063563   1.249742  -1.046044
		H    1.307488  -0.791561   1.127175
		H    2.089819   0.659156   0.006964
*
