! B3LYP cc-pVDZ
!TightSCF
%scf
 ConvForced true
 convergence tight
 MaxIter 500
end
 
%tddft 
 nroots 1
end

# 	17661
* xyz 0 1
		C   -1.160674  -0.320869   0.020322
		O   -1.253295  -1.512241  -0.196905
		C    0.064678   0.506322  -0.190838
		C    1.238536   0.027733  -0.008927
		H   -2.180219   0.260588   0.408711
		H   -0.252396   1.436806  -0.188692
		H    1.438265  -1.065704   0.224340
		H    2.132430   0.629842  -0.109289
*
