! B3LYP cc-pVDZ
!TightSCF
%scf
 ConvForced true
 convergence tight
 MaxIter 500
end
 
%tddft 
 nroots 1
end

# 	22797
* xyz 0 1
		C   -0.567168  -0.412307  -0.092386
		O   -0.564297  -1.629841   0.060999
		C    0.622465   0.435351   0.066457
		C    1.794362  -0.173759  -0.045644
		H   -1.367645   0.026071  -0.236499
		H    0.627252   1.548955   0.228761
		H    1.964098  -1.225573  -0.275974
		H    2.698800   0.566470   0.197610
*
