! B3LYP cc-pVDZ
!TightSCF
%scf
 ConvForced true
 convergence tight
 MaxIter 500
end
 
%tddft 
 nroots 1
end

# 	7465
* xyz 0 1
		C   -1.209462  -0.299336  -0.010295
		O   -1.439947  -1.214272  -0.702026
		C   -0.011373   0.516796  -0.144448
		C    1.225796   0.038564   0.107227
		H   -2.015525  -0.202746   0.711548
		H   -0.112512   1.613641  -0.550403
		H    1.429461  -1.009880   0.573553
		H    2.157653   0.583021   0.016416
*
