! B3LYP cc-pVDZ
!TightSCF
%scf
 ConvForced true
 convergence tight
 MaxIter 500
end
 
%tddft 
 nroots 1
end

# 	1760
* xyz 0 1
		C   -1.239623  -0.319878   0.004371
		O   -1.222278  -1.536422  -0.080914
		C   -0.082104   0.582576  -0.113452
		C    1.282382  -0.024581  -0.056805
		H   -2.116198   0.284003   0.106226
		H   -0.139291   1.684608   0.052492
		H    1.273416  -1.132693   0.075089
		H    2.193269   0.537841   0.056945
*
