! B3LYP cc-pVDZ
!TightSCF
%scf
 ConvForced true
 convergence tight
 MaxIter 500
end
 
%tddft 
 nroots 1
end

# 	22570
* xyz 0 1
		C   -0.649193  -0.403771  -0.035583
		O   -0.533771  -1.595389   0.016300
		C    0.656487   0.370801  -0.005500
		C    1.827675  -0.155663   0.012496
		H   -1.759416   0.065356   0.109049
		H    0.452411   1.441723   0.082352
		H    2.127548  -1.089241  -0.127542
		H    2.708474   0.440712   0.023468
*
