! B3LYP cc-pVDZ
!TightSCF
%scf
 ConvForced true
 convergence tight
 MaxIter 500
end
 
%tddft 
 nroots 1
end

# 	18153
* xyz 0 1
		C   -1.189010  -0.271344   0.057746
		O   -1.897471  -0.805546   0.908397
		C    0.001859   0.415916   0.249404
		C    1.228024   0.046001  -0.156916
		H   -1.276949  -0.564014  -1.041525
		H   -0.087152   1.274228   0.917224
		H    1.209035  -0.856190  -0.760773
		H    2.052039   0.764290  -0.170650
*
