! B3LYP cc-pVDZ
!TightSCF
%scf
 ConvForced true
 convergence tight
 MaxIter 500
end
 
%tddft 
 nroots 1
end

# 	299
* xyz 0 1
		C   -1.257047  -0.410630  -0.012344
		O   -2.295501  -0.300519   0.616729
		C    0.017293   0.368122   0.328199
		C    1.132584   0.177321  -0.356133
		H   -1.081127  -1.162997  -0.684547
		H   -0.005494   1.356831   1.221534
		H    1.429974  -0.613226  -1.011455
		H    2.024640   0.609587  -0.114540
*
