! B3LYP cc-pVDZ
!TightSCF
%scf
 ConvForced true
 convergence tight
 MaxIter 500
end
 
%tddft 
 nroots 1
end

# 	9189
* xyz 0 1
		C   -1.184527  -0.286126   0.041172
		O   -1.788476  -0.922260   0.846902
		C    0.012892   0.519034   0.287134
		C    1.225122   0.018212  -0.181883
		H   -1.513565  -0.527464  -0.973406
		H   -0.195806   1.405423   0.948538
		H    1.268509  -0.843464  -0.943863
		H    2.207710   0.629712  -0.050010
*
