! B3LYP cc-pVDZ
!TightSCF
%scf
 ConvForced true
 convergence tight
 MaxIter 500
end
 
%tddft 
 nroots 1
end

# 	31001
* xyz 0 1
		C   -0.562487  -0.374780  -0.011263
		O   -0.601741  -1.720571  -0.000993
		C    0.655817   0.447634   0.032789
		C    1.819962  -0.094739   0.000627
		H   -1.490510   0.052351  -0.055425
		H    0.490461   1.501786  -0.067809
		H    1.955064  -1.153086   0.045622
		H    2.784510   0.417417  -0.183127
*
