! B3LYP cc-pVDZ
!TightSCF
%scf
 ConvForced true
 convergence tight
 MaxIter 500
end
 
%tddft 
 nroots 1
end

# 	30653
* xyz 0 1
		C   -0.609288  -0.416154   0.025816
		O   -0.578975  -1.624682  -0.004610
		C    0.635747   0.373514  -0.039237
		C    1.862442  -0.126280   0.020171
		H   -1.518970   0.029667  -0.017866
		H    0.604717   1.481087   0.071608
		H    1.922592  -1.105855  -0.098946
		H    2.643962   0.632038   0.044876
*
