! B3LYP cc-pVDZ
!TightSCF
%scf
 ConvForced true
 convergence tight
 MaxIter 500
end
 
%tddft 
 nroots 1
end

# 	17958
* xyz 0 1
		C   -1.220654  -0.306346  -0.011135
		O   -2.161180  -0.360292  -0.819907
		C    0.108759   0.364843  -0.323001
		C    1.228799   0.063585   0.308778
		H   -1.288963  -0.913520   0.787625
		H    0.163922   1.074087  -1.164493
		H    1.124207  -0.549391   1.185456
		H    2.083311   0.563067   0.111346
*
