! B3LYP cc-pVDZ
!TightSCF
%scf
 ConvForced true
 convergence tight
 MaxIter 500
end
 
%tddft 
 nroots 1
end

# 	20195
* xyz 0 1
		C   -0.565664  -0.446850   0.031412
		O   -0.570806  -1.617791  -0.034334
		C    0.635292   0.405141  -0.015931
		C    1.818575  -0.122928   0.023503
		H   -1.554184   0.173878   0.133883
		H    0.484148   1.485410  -0.063083
		H    1.712919  -1.214365   0.343917
		H    2.866264   0.428414  -0.364140
*
