! B3LYP cc-pVDZ
!TightSCF
%scf
 ConvForced true
 convergence tight
 MaxIter 500
end
 
%tddft 
 nroots 1
end

# 	31701
* xyz 0 1
		C   -0.629884  -0.473720  -0.002635
		O   -0.582127  -1.620065   0.014744
		C    0.647569   0.443067  -0.050683
		C    1.878036  -0.111511   0.026531
		H   -1.758175  -0.084973   0.007135
		H    0.422227   1.445508   0.225182
		H    1.973201  -1.187258  -0.239755
		H    2.948140   0.458349   0.111770
*
