! B3LYP cc-pVDZ
!TightSCF
%scf
 ConvForced true
 convergence tight
 MaxIter 500
end
 
%tddft 
 nroots 1
end

# 	22142
* xyz 0 1
		C   -0.596991  -0.389927  -0.003838
		O   -0.528020  -1.616495   0.004245
		C    0.613021   0.371320  -0.025796
		C    1.803635  -0.136427  -0.005882
		H   -1.421677   0.280252   0.024020
		H    0.355499   1.509990   0.214478
		H    1.788775  -1.380437   0.121278
		H    2.902604   0.375940   0.003371
*
