! B3LYP 6-31G
!TightSCF
%scf
 ConvForced true
 convergence tight
 MaxIter 500
end
 
%tddft 
 nroots 1
end

# 	15306
* xyz 0 1
		C   -1.205739  -0.365872   0.090041
		O   -1.356147  -1.406622   0.615966
		C    0.034807   0.458972   0.237550
		C    1.181853   0.005210  -0.125925
		H   -1.916911   0.211683  -0.747414
		H   -0.025498   1.538317   0.613875
		H    1.105330  -1.067961  -0.517634
		H    2.241370   0.548125  -0.146810
*
