! B3LYP 6-31G
!TightSCF
%scf
 ConvForced true
 convergence tight
 MaxIter 500
end
 
%tddft 
 nroots 1
end

# 	1329
* xyz 0 1
		C   -1.195645  -0.337947  -0.031179
		O   -1.777215  -0.984066  -0.848581
		C    0.018675   0.396267  -0.290366
		C    1.171563   0.045470   0.220159
		H   -1.499988  -0.420192   1.130624
		H   -0.068307   1.374791  -0.977834
		H    1.302976  -0.667836   0.775746
		H    2.067328   0.621949   0.058633
*
