! B3LYP 6-31G
!TightSCF
%scf
 ConvForced true
 convergence tight
 MaxIter 500
end
 
%tddft 
 nroots 1
end

# 	14146
* xyz 0 1
		C   -1.210764  -0.273377   0.009589
		O   -1.287220  -1.380940  -0.451952
		C    0.052598   0.562737  -0.160118
		C    1.247021   0.049565   0.119568
		H   -2.079475   0.156087   0.364170
		H   -0.131243   1.443193  -0.349862
		H    1.218579  -1.184798   0.360827
		H    2.230579   0.685748   0.059215
*
