! B3LYP 6-31G
!TightSCF
%scf
 ConvForced true
 convergence tight
 MaxIter 500
end
 
%tddft 
 nroots 1
end

# 	14367
* xyz 0 1
		C   -1.174345  -0.389288   0.025641
		O   -1.469195  -1.398327   0.604384
		C    0.028467   0.489444   0.143474
		C    1.214643  -0.005729  -0.129880
		H   -2.016137   0.140056  -0.628972
		H   -0.158624   1.421138   0.520505
		H    1.435257  -0.949431  -0.462659
		H    2.117830   0.687399  -0.013663
*
