! B3LYP 6-31G
!TightSCF
%scf
 ConvForced true
 convergence tight
 MaxIter 500
end
 
%tddft 
 nroots 1
end

# 	14
* xyz 0 1
		C   -1.190907  -0.418127  -0.032339
		O   -1.715959  -1.106730  -0.911725
		C    0.061259   0.399063  -0.223832
		C    1.223018   0.152031   0.220185
		H   -1.715665  -0.297517   1.027614
		H   -0.090864   1.342302  -0.792773
		H    1.335024  -0.823454   0.783060
		H    2.087452   0.764349  -0.115434
*
