! B3LYP 6-31G
!TightSCF
%scf
 ConvForced true
 convergence tight
 MaxIter 500
end
 
%tddft 
 nroots 1
end

# 	14730
* xyz 0 1
		C   -1.221871  -0.305076   0.062622
		O   -1.725416  -0.918204   0.936005
		C    0.031856   0.474411   0.195210
		C    1.213500  -0.011294  -0.143167
		H   -1.665534  -0.429196  -0.882364
		H   -0.181000   1.452282   0.689277
		H    1.308167  -0.937751  -0.737914
		H    2.194113   0.651491  -0.095559
*
