! B3LYP 6-31G
!TightSCF
%scf
 ConvForced true
 convergence tight
 MaxIter 500
end
 
%tddft 
 nroots 1
end

# 	25105
* xyz 0 1
		C   -0.548960  -0.435441  -0.014421
		O   -0.610871  -1.632866   0.009417
		C    0.620754   0.388508   0.002800
		C    1.858428  -0.114809   0.039138
		H   -1.364508   0.352943   0.018249
		H    0.337727   1.304720  -0.109495
		H    2.027412  -1.136410  -0.367776
		H    2.628396   0.603478  -0.018798
*
