! B3LYP 6-31G
!TightSCF
%scf
 ConvForced true
 convergence tight
 MaxIter 500
end
 
%tddft 
 nroots 1
end

# 	22184
* xyz 0 1
		C   -0.556789  -0.429819   0.000848
		O   -0.649647  -1.680135   0.008852
		C    0.674099   0.344647  -0.014428
		C    1.848094  -0.013104   0.016787
		H   -1.504724   0.235431  -0.148376
		H    0.520884   1.500958   0.186761
		H    2.155735  -1.051345  -0.099636
		H    2.697243   0.428257  -0.111749
*
