! B3LYP 6-31G
!TightSCF
%scf
 ConvForced true
 convergence tight
 MaxIter 500
end
 
%tddft 
 nroots 1
end

# 	7631
* xyz 0 1
		C   -1.195507  -0.353898   0.057203
		O   -1.750114  -0.970543   0.974274
		C   -0.018016   0.470905   0.256771
		C    1.201839   0.041421  -0.213245
		H   -1.677955  -0.498365  -0.982625
		H    0.065827   1.467271   0.793227
		H    1.303428  -0.789372  -0.804912
		H    2.041076   0.681470  -0.056518
*
