! B3LYP 6-31G
!TightSCF
%scf
 ConvForced true
 convergence tight
 MaxIter 500
end
 
%tddft 
 nroots 1
end

# 	21730
* xyz 0 1
		C   -0.571705  -0.431327  -0.023356
		O   -0.568334  -1.629865   0.026660
		C    0.622835   0.455598   0.032533
		C    1.819558  -0.167246  -0.016134
		H   -1.586581   0.002809  -0.175207
		H    0.425789   1.591455  -0.050113
		H    2.063084  -1.131459  -0.347104
		H    2.789585   0.376832   0.251632
*
