! B3LYP 6-31G
!TightSCF
%scf
 ConvForced true
 convergence tight
 MaxIter 500
end
 
%tddft 
 nroots 1
end

# 	23662
* xyz 0 1
		C   -0.565191  -0.433736   0.047695
		O   -0.577659  -1.665254  -0.019515
		C    0.604627   0.431558  -0.038898
		C    1.838441  -0.106278   0.042325
		H   -1.489356   0.202579  -0.014156
		H    0.657593   1.624500  -0.079536
		H    1.806680  -1.324289  -0.140397
		H    2.819568   0.463080  -0.070849
*
