! B3LYP 6-31G
!TightSCF
%scf
 ConvForced true
 convergence tight
 MaxIter 500
end
 
%tddft 
 nroots 1
end

# 	9950
* xyz 0 1
		C   -1.174845  -0.238687   0.052748
		O   -1.472437  -1.334570   0.731198
		C    0.062029   0.513166   0.161128
		C    1.237881   0.027364  -0.075353
		H   -2.092333   0.099744  -0.644914
		H   -0.103545   1.355139   0.321232
		H    1.384635  -1.010687  -0.449097
		H    2.110102   0.537854  -0.039385
*
