! B3LYP 6-31G
!TightSCF
%scf
 ConvForced true
 convergence tight
 MaxIter 500
end
 
%tddft 
 nroots 1
end

# 	4646
* xyz 0 1
		C   -1.207880  -0.292353   0.069119
		O   -1.398870  -1.306942   0.536395
		C    0.012697   0.505063   0.244559
		C    1.156822   0.023954  -0.123587
		H   -1.700171   0.012193  -0.866229
		H   -0.278712   1.581994   0.408971
		H    1.300916  -1.017140  -0.328579
		H    2.093475   0.485063   0.018649
*
