! B3LYP 6-31G
!TightSCF
%scf
 ConvForced true
 convergence tight
 MaxIter 500
end
 
%tddft 
 nroots 1
end

# 	5988
* xyz 0 1
		C   -1.171188  -0.379065  -0.033668
		O   -1.504364  -1.320290   0.685797
		C   -0.012500   0.469511   0.217681
		C    1.212884   0.023640  -0.147096
		H   -1.780284  -0.064652  -0.839983
		H   -0.093852   1.582734   0.713753
		H    1.304105  -0.980621  -0.586405
		H    2.112442   0.639070   0.021666
*
