! B3LYP 6-31G
!TightSCF
%scf
 ConvForced true
 convergence tight
 MaxIter 500
end
 
%tddft 
 nroots 1
end

# 	1303
* xyz 0 1
		C   -1.180115  -0.294386  -0.065203
		O   -1.196959  -1.429802   0.355956
		C    0.026705   0.625067   0.104820
		C    1.180771   0.002227  -0.095652
		H   -2.020692   0.101871  -0.463488
		H   -0.228689   1.667796   0.354319
		H    1.254146  -1.095228  -0.333851
		H    2.217683   0.429534   0.105213
*
