! B3LYP 6-31G
!TightSCF
%scf
 ConvForced true
 convergence tight
 MaxIter 500
end
 
%tddft 
 nroots 1
end

# 	10539
* xyz 0 1
		C   -1.216556  -0.362641  -0.044565
		O   -2.239386  -0.399482  -0.565505
		C   -0.018362   0.407871  -0.395574
		C    1.132613   0.290847   0.345613
		H   -0.869629  -1.174559   0.570905
		H   -0.047511   1.232788  -1.240106
		H    1.215403  -0.646087   1.241297
		H    2.009879   0.669870   0.089644
*
