! B3LYP 6-31G
!TightSCF
%scf
 ConvForced true
 convergence tight
 MaxIter 500
end
 
%tddft 
 nroots 1
end

# 	9728
* xyz 0 1
		C   -1.200800  -0.266689   0.008920
		O   -1.514970  -1.159018  -0.741113
		C   -0.018426   0.584816  -0.204720
		C    1.256209   0.003091   0.184569
		H   -1.737642  -0.044170   0.936425
		H   -0.156279   1.412398  -0.663734
		H    1.192091  -0.971531   0.450354
		H    2.207076   0.503229   0.027676
*
