! B3LYP 6-31G
!TightSCF
%scf
 ConvForced true
 convergence tight
 MaxIter 500
end
 
%tddft 
 nroots 1
end

# 	112
* xyz 0 1
		C   -1.200725  -0.369212   0.031078
		O   -1.684235  -1.160040  -0.754519
		C   -0.041850   0.477876  -0.194401
		C    1.233799   0.080395   0.199913
		H   -1.586923  -0.268773   0.796626
		H   -0.233007   1.554914  -0.544628
		H    1.340930  -1.109746   0.478807
		H    2.215369   0.814018  -0.034450
*
