! B3LYP 6-31G
!TightSCF
%scf
 ConvForced true
 convergence tight
 MaxIter 500
end
 
%tddft 
 nroots 1
end

# 	17894
* xyz 0 1
		C   -1.200311  -0.303582   0.037964
		O   -1.977397  -0.588992   0.902964
		C    0.010127   0.492175   0.282912
		C    1.186230   0.066816  -0.122398
		H   -1.341552  -0.885139  -1.039340
		H   -0.071401   1.434495   1.054298
		H    1.226554  -0.786286  -1.007101
		H    2.151160   0.553931  -0.019095
*
