! B3LYP 6-31G
!TightSCF
%scf
 ConvForced true
 convergence tight
 MaxIter 500
end
 
%tddft 
 nroots 1
end

# 	1516
* xyz 0 1
		C   -1.193928  -0.335468  -0.037705
		O   -2.111406  -0.348332  -0.814616
		C    0.017538   0.357435  -0.341088
		C    1.188653   0.048973   0.239377
		H   -1.380405  -0.870791   0.956189
		H    0.062933   1.060985  -1.184955
		H    1.166350  -0.511176   1.140620
		H    2.220962   0.580253   0.061527
*
