! B3LYP 6-31G
!TightSCF
%scf
 ConvForced true
 convergence tight
 MaxIter 500
end
 
%tddft 
 nroots 1
end

# 	25222
* xyz 0 1
		C   -0.585966  -0.459599   0.056183
		O   -0.639415  -1.681207  -0.037125
		C    0.679856   0.433827   0.005308
		C    1.861996  -0.049833  -0.032250
		H   -1.490646   0.040163   0.102589
		H    0.458300   1.492478  -0.333239
		H    2.123440  -1.261552   0.296862
		H    2.751395   0.560188   0.162520
*
