! B3LYP 6-31G
!TightSCF
%scf
 ConvForced true
 convergence tight
 MaxIter 500
end
 
%tddft 
 nroots 1
end

# 	6247
* xyz 0 1
		C   -1.200017  -0.377090   0.037975
		O   -1.592234  -1.328449  -0.698423
		C    0.022528   0.480986  -0.229525
		C    1.207430   0.029245   0.096389
		H   -1.691811  -0.013247   0.880120
		H   -0.114235   1.415470  -0.659634
		H    1.288787  -0.839250   0.599106
		H    2.090444   0.593739   0.033667
*
