! B3LYP 6-31G
!TightSCF
%scf
 ConvForced true
 convergence tight
 MaxIter 500
end
 
%tddft 
 nroots 1
end

# 	21323
* xyz 0 1
		C   -0.573424  -0.426291  -0.019398
		O   -0.620208  -1.667745   0.017636
		C    0.649002   0.428093  -0.001795
		C    1.846587  -0.101145  -0.044148
		H   -1.537256   0.051198   0.013724
		H    0.472379   1.462632   0.132655
		H    2.301206  -1.086714   0.050968
		H    2.683275   0.505533   0.323806
*
