! B3LYP 6-31G
!TightSCF
%scf
 ConvForced true
 convergence tight
 MaxIter 500
end
 
%tddft 
 nroots 1
end

# 	24624
* xyz 0 1
		C   -0.603079  -0.438210   0.040452
		O   -0.574505  -1.613612  -0.017514
		C    0.624387   0.407932  -0.022264
		C    1.854773  -0.143284   0.034158
		H   -1.443945   0.056628  -0.036682
		H    0.450954   1.527729  -0.112398
		H    2.015990  -1.155651  -0.121471
		H    2.695461   0.509273  -0.082638
*
