! B3LYP 6-31G
!TightSCF
%scf
 ConvForced true
 convergence tight
 MaxIter 500
end
 
%tddft 
 nroots 1
end

# 	22163
* xyz 0 1
		C   -0.628477  -0.404210   0.049142
		O   -0.525398  -1.599645  -0.009840
		C    0.591333   0.381658  -0.024792
		C    1.855361  -0.173063   0.041053
		H   -1.624779   0.088285  -0.177392
		H    0.568342   1.560629  -0.105323
		H    1.909684  -1.157028  -0.339092
		H    2.761185   0.491000   0.001315
*
