! B3LYP 6-31G
!TightSCF
%scf
 ConvForced true
 convergence tight
 MaxIter 500
end
 
%tddft 
 nroots 1
end

# 	32474
* xyz 0 1
		C   -0.611319  -0.411348   0.046671
		O   -0.533027  -1.644620  -0.021500
		C    0.614871   0.430786  -0.051036
		C    1.842466  -0.140638   0.018001
		H   -1.627088   0.203217   0.051327
		H    0.501323   1.546659   0.043211
		H    1.757715  -1.390988   0.099561
		H    2.790520   0.444609  -0.017150
*
