! B3LYP 6-31G
!TightSCF
%scf
 ConvForced true
 convergence tight
 MaxIter 500
end
 
%tddft 
 nroots 1
end

# 	29662
* xyz 0 1
		C   -0.593295  -0.426565   0.080761
		O   -0.599151  -1.649059  -0.058533
		C    0.612893   0.389479  -0.034507
		C    1.879059  -0.075038   0.026794
		H   -1.624119   0.096690   0.229153
		H    0.498996   1.372663  -0.348889
		H    2.021490  -1.189130   0.291893
		H    2.926887   0.474111  -0.145079
*
