! B3LYP 6-31G
!TightSCF
%scf
 ConvForced true
 convergence tight
 MaxIter 500
end
 
%tddft 
 nroots 1
end

# 	20489
* xyz 0 1
		C   -0.602971  -0.409398   0.053245
		O   -0.620046  -1.684879  -0.028109
		C    0.625416   0.371148  -0.025036
		C    1.891054  -0.052049   0.030277
		H   -1.573363   0.030141   0.002379
		H    0.638591   1.579944  -0.156180
		H    2.153662  -1.154685  -0.002896
		H    2.821812   0.616434  -0.107180
*
