! B3LYP 6-31G
!TightSCF
%scf
 ConvForced true
 convergence tight
 MaxIter 500
end
 
%tddft 
 nroots 1
end

# 	30336
* xyz 0 1
		C   -0.608221  -0.477599   0.024984
		O   -0.610864  -1.692482  -0.018521
		C    0.655978   0.469350  -0.009410
		C    1.911550  -0.095840   0.016396
		H   -1.778677   0.269800   0.106063
		H    0.501296   1.620433  -0.191834
		H    2.061949  -1.148633  -0.006850
		H    2.561684   0.634976  -0.004678
*
