! B3LYP 6-31G
!TightSCF
%scf
 ConvForced true
 convergence tight
 MaxIter 500
end
 
%tddft 
 nroots 1
end

# 	482
* xyz 0 1
		C   -1.269802  -0.375573   0.068422
		O   -1.303805  -1.520161  -0.221516
		C    0.006912   0.453999  -0.070845
		C    1.130606  -0.086356   0.049403
		H   -2.223837   0.214577   0.256135
		H    0.023410   1.622631  -0.373805
		H    1.634641  -0.924775   0.215811
		H    1.998095   0.600596   0.079360
*
