! B3LYP 6-31G
!TightSCF
%scf
 ConvForced true
 convergence tight
 MaxIter 500
end
 
%tddft 
 nroots 1
end

# 	19331
* xyz 0 1
		C   -1.187726  -0.229754   0.086700
		O   -1.550137  -1.035271   0.905260
		C    0.024645   0.529073   0.211192
		C    1.193953   0.059976  -0.262246
		H   -1.578929  -0.279691  -1.034259
		H   -0.046195   1.421838   0.869395
		H    1.071498  -1.149012  -0.736625
		H    2.128424   0.643185  -0.033641
*
