! B3LYP 6-31G
!TightSCF
%scf
 ConvForced true
 convergence tight
 MaxIter 500
end
 
%tddft 
 nroots 1
end

# 	21492
* xyz 0 1
		C   -0.622299  -0.404309   0.062829
		O   -0.501299  -1.605955  -0.034923
		C    0.577973   0.444809  -0.090587
		C    1.811582  -0.215144   0.023765
		H   -1.663818   0.061838   0.133637
		H    0.648385   1.684502   0.246293
		H    2.137593  -1.208953   0.393521
		H    2.746882   0.330125  -0.179149
*
