! B3LYP 6-31G
!TightSCF
%scf
 ConvForced true
 convergence tight
 MaxIter 500
end
 
%tddft 
 nroots 1
end

# 	2451
* xyz 0 1
		C   -1.213983  -0.276359   0.039551
		O   -1.684227  -0.851969   0.904330
		C    0.010811   0.517276   0.103631
		C    1.223813  -0.004045  -0.195244
		H   -1.522352  -0.495326  -0.920535
		H   -0.072193   1.578205   0.572502
		H    1.215295  -1.058983  -0.492938
		H    2.134526   0.563744  -0.105810
*
