! B3LYP 6-31G
!TightSCF
%scf
 ConvForced true
 convergence tight
 MaxIter 500
end
 
%tddft 
 nroots 1
end

# 	7781
* xyz 0 1
		C   -1.115718  -0.256109  -0.041350
		O   -1.178364  -1.505802  -0.214772
		C    0.076696   0.543749  -0.162491
		C    1.259031  -0.028761  -0.055324
		H   -2.111483   0.187965   0.269516
		H   -0.180463   1.602623  -0.050426
		H    1.319863  -1.132226   0.104855
		H    1.926801   0.614758   0.115416
*
