! B3LYP 6-31G
!TightSCF
%scf
 ConvForced true
 convergence tight
 MaxIter 500
end
 
%tddft 
 nroots 1
end

# 	13269
* xyz 0 1
		C   -1.176044  -0.281774   0.015094
		O   -1.555940  -1.185877   0.723840
		C   -0.039641   0.536565   0.259932
		C    1.228497   0.058812  -0.112516
		H   -1.639389  -0.056978  -0.956220
		H   -0.181058   1.549658   0.645648
		H    1.245399  -1.054942  -0.541010
		H    2.137673   0.442740  -0.060766
*
