! B3LYP 6-31G
!TightSCF
%scf
 ConvForced true
 convergence tight
 MaxIter 500
end
 
%tddft 
 nroots 1
end

# 	26569
* xyz 0 1
		C   -0.527721  -0.460400  -0.009777
		O   -0.573933  -1.623199   0.017160
		C    0.600195   0.464176  -0.023587
		C    1.818480  -0.181291   0.014838
		H   -1.605197   0.188619  -0.035783
		H    0.571021   1.664719   0.128568
		H    1.980278  -1.202398  -0.259516
		H    2.634397   0.499196   0.132256
*
