! B3LYP 6-31G
!TightSCF
%scf
 ConvForced true
 convergence tight
 MaxIter 500
end
 
%tddft 
 nroots 1
end

# 	30426
* xyz 0 1
		C   -0.572762  -0.404893   0.012277
		O   -0.580902  -1.661315  -0.014044
		C    0.661371   0.435512   0.034030
		C    1.816433  -0.142277  -0.033777
		H   -1.629022   0.089211  -0.004001
		H    0.493601   1.480174  -0.184940
		H    2.009929  -1.097720   0.227416
		H    2.621020   0.491744   0.025117
*
