! B3LYP 6-31G
!TightSCF
%scf
 ConvForced true
 convergence tight
 MaxIter 500
end
 
%tddft 
 nroots 1
end

# 	29118
* xyz 0 1
		C   -0.567929  -0.429328   0.009367
		O   -0.576697  -1.646261  -0.022911
		C    0.608502   0.401410  -0.012048
		C    1.852667  -0.108802  -0.000987
		H   -1.483003   0.284300   0.303788
		H    0.297050   1.644214  -0.164001
		H    1.883023  -1.260475   0.250320
		H    2.838934   0.372168   0.001863
*
