! B3LYP 6-31G
!TightSCF
%scf
 ConvForced true
 convergence tight
 MaxIter 500
end
 
%tddft 
 nroots 1
end

# 	16360
* xyz 0 1
		C   -1.266194  -0.327275  -0.003631
		O   -1.133252  -1.543467  -0.085659
		C    0.043062   0.537905  -0.066955
		C    1.185152  -0.024448  -0.017003
		H   -2.208596   0.189992   0.319548
		H   -0.051007   1.783452  -0.261787
		H    1.286564  -1.169406   0.177529
		H    2.109623   0.488162   0.009248
*
