! B3LYP 6-31G
!TightSCF
%scf
 ConvForced true
 convergence tight
 MaxIter 500
end
 
%tddft 
 nroots 1
end

# 	18392
* xyz 0 1
		C   -1.247268  -0.294456  -0.061885
		O   -1.928356  -0.701323  -0.904638
		C    0.000176   0.512049  -0.243368
		C    1.154155   0.036388   0.163089
		H   -1.350423  -0.643771   1.063876
		H   -0.041321   1.438782  -0.815394
		H    1.334822  -0.771253   0.716055
		H    2.074138   0.502752   0.137758
*
