! B3LYP 6-31G
!TightSCF
%scf
 ConvForced true
 convergence tight
 MaxIter 500
end
 
%tddft 
 nroots 1
end

# 	10278
* xyz 0 1
		C   -1.190151  -0.389519   0.034317
		O   -2.117519  -0.512435   0.752081
		C   -0.007661   0.394505   0.280712
		C    1.127811   0.133280  -0.288056
		H   -1.040031  -0.886215  -0.995421
		H   -0.097136   1.247864   1.320016
		H    1.201373  -0.625729  -1.202395
		H    2.104843   0.657982   0.052237
*
