! B3LYP 6-31G
!TightSCF
%scf
 ConvForced true
 convergence tight
 MaxIter 500
end
 
%tddft 
 nroots 1
end

# 	17590
* xyz 0 1
		C   -1.266931  -0.291168  -0.035913
		O   -1.677865  -1.022301  -0.792791
		C   -0.065095   0.547517  -0.138999
		C    1.166029  -0.035121   0.168858
		H   -1.608513  -0.380711   0.922825
		H   -0.089184   1.572373  -0.644485
		H    1.328711  -0.983535   0.588888
		H    2.144009   0.573769  -0.011303
*
