! B3LYP 6-31G
!TightSCF
%scf
 ConvForced true
 convergence tight
 MaxIter 500
end
 
%tddft 
 nroots 1
end

# 	28802
* xyz 0 1
		C   -0.614270  -0.432524   0.000981
		O   -0.524723  -1.577639  -0.004458
		C    0.657146   0.404580  -0.027609
		C    1.792521  -0.174542   0.007901
		H   -1.614004   0.065751   0.119788
		H    0.514106   1.517293   0.099759
		H    1.864502  -1.301035   0.108137
		H    2.651768   0.429558  -0.034780
*
