! B3LYP 6-31G
!TightSCF
%scf
 ConvForced true
 convergence tight
 MaxIter 500
end
 
%tddft 
 nroots 1
end

# 	30811
* xyz 0 1
		C   -0.620782  -0.427163  -0.009132
		O   -0.513717  -1.604258   0.014580
		C    0.607422   0.434729  -0.014499
		C    1.818622  -0.179263   0.016746
		H   -1.584731   0.158795  -0.091728
		H    0.615953   1.476480   0.150387
		H    1.767944  -1.312243  -0.192928
		H    2.795238   0.433198  -0.004559
*
