! B3LYP 6-31G
!TightSCF
%scf
 ConvForced true
 convergence tight
 MaxIter 500
end
 
%tddft 
 nroots 1
end

# 	20979
* xyz 0 1
		C   -0.557552  -0.495194   0.006338
		O   -0.646665  -1.663115  -0.003925
		C    0.657833   0.426480   0.011834
		C    1.850966  -0.039851  -0.000982
		H   -1.421218   0.266362  -0.084525
		H    0.542497   1.334081  -0.006171
		H    1.998972  -1.109084   0.055190
		H    2.854682   0.437166  -0.112989
*
