! B3LYP 6-31G
!TightSCF
%scf
 ConvForced true
 convergence tight
 MaxIter 500
end
 
%tddft 
 nroots 1
end

# 	14648
* xyz 0 1
		C   -1.177521  -0.343687   0.004787
		O   -1.722242  -1.092073  -0.890684
		C   -0.009291   0.494733  -0.244510
		C    1.169122   0.055197   0.185202
		H   -1.531908  -0.384215   1.151394
		H   -0.140536   1.462700  -0.856083
		H    1.254442  -0.890181   0.673411
		H    2.063343   0.678203  -0.016855
*
