! B3LYP 6-31G
!TightSCF
%scf
 ConvForced true
 convergence tight
 MaxIter 500
end
 
%tddft 
 nroots 1
end

# 	5143
* xyz 0 1
		C   -1.120774  -0.302736  -0.018989
		O   -1.297831  -1.461304  -0.372659
		C    0.000762   0.528165  -0.115087
		C    1.320801   0.051672   0.097789
		H   -2.060853   0.109593   0.385804
		H   -0.249816   1.524484  -0.288366
		H    1.258662  -1.034138   0.221878
		H    2.172139   0.597623   0.082939
*
