! B3LYP 6-31G
!TightSCF
%scf
 ConvForced true
 convergence tight
 MaxIter 500
end
 
%tddft 
 nroots 1
end

# 	21774
* xyz 0 1
		C   -0.565033  -0.435887  -0.040449
		O   -0.620917  -1.646523   0.023225
		C    0.642432   0.390379  -0.003073
		C    1.867839  -0.102750   0.020298
		H   -1.521940   0.031195   0.014475
		H    0.547926   1.583967   0.152035
		H    2.074486  -1.173272  -0.208418
		H    2.586756   0.709260  -0.042456
*
