! B3LYP 6-31G
!TightSCF
%scf
 ConvForced true
 convergence tight
 MaxIter 500
end
 
%tddft 
 nroots 1
end

# 	18229
* xyz 0 1
		C   -1.179002  -0.352515   0.079161
		O   -1.592964  -1.148132   0.770453
		C   -0.044496   0.470212   0.221726
		C    1.171209  -0.006049  -0.172852
		H   -1.616260  -0.233027  -0.925571
		H   -0.049712   1.577241   0.628869
		H    1.237592  -1.052290  -0.483799
		H    2.084748   0.684696  -0.041568
*
