! B3LYP 6-31G
!TightSCF
%scf
 ConvForced true
 convergence tight
 MaxIter 500
end
 
%tddft 
 nroots 1
end

# 	4484
* xyz 0 1
		C   -1.181543  -0.392785   0.003682
		O   -1.333118  -1.526496   0.369127
		C    0.078950   0.453129   0.136880
		C    1.208139  -0.036860   0.007049
		H   -2.125182   0.212195  -0.369779
		H   -0.180362   1.478086   0.183822
		H    1.454677  -0.954135  -0.377773
		H    2.039847   0.713264  -0.023619
*
