! B3LYP 6-31G
!TightSCF
%scf
 ConvForced true
 convergence tight
 MaxIter 500
end
 
%tddft 
 nroots 1
end

# 	15237
* xyz 0 1
		C   -1.205557  -0.224090  -0.114729
		O   -2.063895  -0.149524  -0.786469
		C    0.058288   0.568688  -0.223016
		C    1.298956   0.008435   0.204327
		H   -1.236611  -0.974429   0.708778
		H   -0.102134   1.349803  -0.924105
		H    1.133785  -0.993180   0.982526
		H    2.146377   0.444086   0.162546
*
