! B3LYP 6-31G
!TightSCF
%scf
 ConvForced true
 convergence tight
 MaxIter 500
end
 
%tddft 
 nroots 1
end

# 	8878
* xyz 0 1
		C   -1.148356  -0.386649   0.043635
		O   -2.239574  -0.349333   0.631456
		C    0.036866   0.307290   0.462489
		C    1.159079   0.118456  -0.249688
		H   -1.144533  -0.908994  -0.894679
		H    0.001585   1.210778   1.238804
		H    1.170248  -0.799684  -0.987952
		H    2.154902   0.738806  -0.201267
*
