! B3LYP 6-31G
!TightSCF
%scf
 ConvForced true
 convergence tight
 MaxIter 500
end
 
%tddft 
 nroots 1
end

# 	27929
* xyz 0 1
		C   -0.491714  -0.388457  -0.017288
		O   -0.582303  -1.657390   0.002239
		C    0.633922   0.424791  -0.017014
		C    1.777535  -0.154676   0.005104
		H   -1.503564   0.245686   0.222190
		H    0.358209   1.514823  -0.007000
		H    1.828468  -1.277445  -0.001813
		H    2.666210   0.507534   0.100973
*
