! B3LYP 6-31G
!TightSCF
%scf
 ConvForced true
 convergence tight
 MaxIter 500
end
 
%tddft 
 nroots 1
end

# 	23582
* xyz 0 1
		C   -0.585508  -0.405813   0.036681
		O   -0.537347  -1.618773  -0.009323
		C    0.603933   0.418860  -0.014150
		C    1.830532  -0.138362   0.011385
		H   -1.594464   0.041925  -0.199777
		H    0.444560   1.492325   0.066253
		H    1.738723  -1.385416  -0.004601
		H    2.841057   0.272344  -0.118900
*
