! B3LYP 6-31G
!TightSCF
%scf
 ConvForced true
 convergence tight
 MaxIter 500
end
 
%tddft 
 nroots 1
end

# 	2011
* xyz 0 1
		C   -1.231002  -0.322850  -0.110327
		O   -1.668811  -0.967478  -0.984857
		C    0.057101   0.470334  -0.301995
		C    1.147805   0.057039   0.293834
		H   -1.496270  -0.298640   1.073460
		H   -0.091108   1.382658  -0.844439
		H    1.161294  -0.976910   0.702159
		H    2.080721   0.624964   0.185862
*
