! B3LYP 6-31G
!TightSCF
%scf
 ConvForced true
 convergence tight
 MaxIter 500
end
 
%tddft 
 nroots 1
end

# 	30766
* xyz 0 1
		C   -0.598347  -0.445589   0.056889
		O   -0.604425  -1.652826  -0.031124
		C    0.660201   0.409690  -0.057627
		C    1.862330  -0.092125   0.018663
		H   -1.595962   0.083766   0.202183
		H    0.444461   1.516040  -0.130440
		H    2.006970  -1.125686   0.077182
		H    2.775110   0.536562   0.127923
*
