! B3LYP 6-31G
!TightSCF
%scf
 ConvForced true
 convergence tight
 MaxIter 500
end
 
%tddft 
 nroots 1
end

# 	18832
* xyz 0 1
		C   -1.194721  -0.287557  -0.039939
		O   -1.954187  -0.706935  -0.906248
		C    0.068772   0.472536  -0.335401
		C    1.233469   0.072825   0.176965
		H   -1.322527  -0.695474   1.121069
		H   -0.138938   1.179585  -1.022435
		H    1.219394  -0.697034   0.962231
		H    2.167985   0.597132   0.064887
*
