! B3LYP 6-31G
!TightSCF
%scf
 ConvForced true
 convergence tight
 MaxIter 500
end
 
%tddft 
 nroots 1
end

# 	6474
* xyz 0 1
		C   -1.181240  -0.296170  -0.080385
		O   -1.801132  -0.822475  -0.987004
		C   -0.019868   0.448536  -0.249860
		C    1.139207   0.044434   0.172940
		H   -1.368285  -0.550661   0.856572
		H   -0.156052   1.375824  -0.728378
		H    1.237940  -0.901906   0.832786
		H    2.145447   0.713409   0.178988
*
