! B3LYP 6-31G
!TightSCF
%scf
 ConvForced true
 convergence tight
 MaxIter 500
end
 
%tddft 
 nroots 1
end

# 	18166
* xyz 0 1
		C   -1.196231  -0.355662  -0.001177
		O   -1.378222  -1.484346  -0.300233
		C    0.005583   0.480448  -0.122772
		C    1.233825  -0.037688   0.054670
		H   -2.083491   0.190881   0.420668
		H   -0.081586   1.552294  -0.218671
		H    1.451146  -0.986614   0.153523
		H    2.065585   0.661544  -0.002029
*
