! B3LYP 6-31G
!TightSCF
%scf
 ConvForced true
 convergence tight
 MaxIter 500
end
 
%tddft 
 nroots 1
end

# 	29560
* xyz 0 1
		C   -0.581868  -0.421189   0.100693
		O   -0.578387  -1.626028  -0.058970
		C    0.599683   0.384193  -0.048002
		C    1.872312  -0.088167   0.008809
		H   -1.647454   0.001871   0.110754
		H    0.570062   1.438461  -0.235957
		H    1.838739  -1.296901   0.361547
		H    2.840215   0.374394  -0.054386
*
