! B3LYP 6-31G
!TightSCF
%scf
 ConvForced true
 convergence tight
 MaxIter 500
end
 
%tddft 
 nroots 1
end

# 	17869
* xyz 0 1
		C   -1.184008  -0.394297  -0.036202
		O   -1.549345  -1.246186  -0.763625
		C   -0.030195   0.469475  -0.214509
		C    1.212987   0.037707   0.042517
		H   -1.835475  -0.007407   0.897317
		H   -0.090107   1.547083  -0.457054
		H    1.434736  -0.957552   0.404985
		H    2.048698   0.589990   0.098675
*
