! B3LYP 6-31G
!TightSCF
%scf
 ConvForced true
 convergence tight
 MaxIter 500
end
 
%tddft 
 nroots 1
end

# 	13830
* xyz 0 1
		C   -1.207554  -0.297198  -0.074884
		O   -1.896599  -0.834865  -0.829716
		C    0.019631   0.538236  -0.223290
		C    1.191967   0.046942   0.119167
		H   -1.450516  -0.662291   1.008633
		H   -0.152221   1.411982  -0.846266
		H    1.290758  -0.889914   0.773949
		H    2.216677   0.667457   0.052430
*
