! B3LYP 6-31G
!TightSCF
%scf
 ConvForced true
 convergence tight
 MaxIter 500
end
 
%tddft 
 nroots 1
end

# 	17953
* xyz 0 1
		C   -1.200175  -0.252476  -0.051286
		O   -1.854151  -0.806843  -0.932578
		C    0.054537   0.504504  -0.258217
		C    1.223606   0.025546   0.217615
		H   -1.479250  -0.457154   0.994254
		H    0.096675   1.240343  -0.992065
		H    1.118060  -0.789343   0.924011
		H    2.076234   0.560723   0.102561
*
