! B3LYP 6-31G
!TightSCF
%scf
 ConvForced true
 convergence tight
 MaxIter 500
end
 
%tddft 
 nroots 1
end

# 	1607
* xyz 0 1
		C   -1.227507  -0.344128   0.010117
		O   -1.363430  -1.485934  -0.338051
		C    0.020252   0.481622  -0.123386
		C    1.234909   0.080135   0.025854
		H   -2.067116   0.322403   0.585655
		H   -0.180574   1.483856  -0.316257
		H    1.324645  -1.107061   0.272096
		H    2.275084   0.560814  -0.126398
*
