! B3LYP 6-31G
!TightSCF
%scf
 ConvForced true
 convergence tight
 MaxIter 500
end
 
%tddft 
 nroots 1
end

# 	8181
* xyz 0 1
		C   -1.156805  -0.285858   0.026034
		O   -1.186618  -1.449086  -0.153517
		C   -0.007902   0.540724   0.013913
		C    1.233766  -0.057373  -0.026908
		H   -2.236225   0.142641   0.099187
		H   -0.096328   1.627963  -0.247120
		H    1.252787  -1.165061   0.307896
		H    2.172448   0.610155  -0.005528
*
