! B3LYP 6-31G
!TightSCF
%scf
 ConvForced true
 convergence tight
 MaxIter 500
end
 
%tddft 
 nroots 1
end

# 	294
* xyz 0 1
		C   -1.248768  -0.357300   0.019333
		O   -1.915195  -0.930068   0.816527
		C    0.014968   0.441187   0.214620
		C    1.172079   0.056925  -0.240345
		H   -1.473780  -0.543074  -1.032416
		H    0.011366   1.546001   0.851451
		H    1.447879  -0.878109  -0.699673
		H    1.994882   0.613801  -0.029085
*
