! B3LYP 6-31G
!TightSCF
%scf
 ConvForced true
 convergence tight
 MaxIter 500
end
 
%tddft 
 nroots 1
end

# 	24485
* xyz 0 1
		C   -0.592586  -0.423886   0.039350
		O   -0.548277  -1.638769  -0.020578
		C    0.597159   0.466427  -0.055833
		C    1.857474  -0.169308  -0.002129
		H   -1.698635   0.071481   0.189879
		H    0.456139   1.551569   0.013273
		H    1.954352  -1.266156   0.171900
		H    2.757489   0.424433   0.177677
*
