! B3LYP 6-31G
!TightSCF
%scf
 ConvForced true
 convergence tight
 MaxIter 500
end
 
%tddft 
 nroots 1
end

# 	17166
* xyz 0 1
		C   -1.163036  -0.366462  -0.007200
		O   -1.425567  -1.356737  -0.531216
		C   -0.014261   0.532930  -0.121694
		C    1.243886   0.022955   0.099449
		H   -1.948673   0.047830   0.714952
		H   -0.166918   1.584229  -0.437040
		H    1.330505  -1.016617   0.322306
		H    2.109060   0.570704  -0.070418
*
