! B3LYP 6-31G
!TightSCF
%scf
 ConvForced true
 convergence tight
 MaxIter 500
end
 
%tddft 
 nroots 1
end

# 	16307
* xyz 0 1
		C   -1.190958  -0.293912  -0.028684
		O   -1.320769  -1.423518   0.507566
		C    0.067388   0.475227   0.183139
		C    1.198562  -0.005946  -0.146690
		H   -2.031790   0.207710  -0.470055
		H   -0.051554   1.574192   0.414650
		H    1.188777  -1.091599  -0.323857
		H    2.107226   0.589611  -0.078294
*
