! B3LYP 6-31G
!TightSCF
%scf
 ConvForced true
 convergence tight
 MaxIter 500
end
 
%tddft 
 nroots 1
end

# 	7874
* xyz 0 1
		C   -1.191889  -0.268676  -0.036484
		O   -1.962900  -0.630611  -0.935848
		C    0.120126   0.456529  -0.205124
		C    1.233486   0.072789   0.231058
		H   -1.416289  -0.752312   0.961731
		H   -0.013299   1.237161  -0.918848
		H    1.193866  -0.616560   0.941701
		H    2.026902   0.549594  -0.042600
*
