! B3LYP 6-31G
!TightSCF
%scf
 ConvForced true
 convergence tight
 MaxIter 500
end
 
%tddft 
 nroots 1
end

# 	16323
* xyz 0 1
		C   -1.128488  -0.289730  -0.092515
		O   -1.272955  -1.415866  -0.474611
		C    0.034102   0.526774  -0.167594
		C    1.166151  -0.056253   0.057260
		H   -2.067687   0.216563   0.497222
		H   -0.086561   1.575442  -0.317101
		H    1.146661  -1.145052   0.300353
		H    2.242858   0.637003   0.159091
*
