! B3LYP 6-31G
!TightSCF
%scf
 ConvForced true
 convergence tight
 MaxIter 500
end
 
%tddft 
 nroots 1
end

# 	3982
* xyz 0 1
		C   -1.214198  -0.309799   0.019540
		O   -1.237140  -1.526175   0.267481
		C    0.015177   0.480772   0.082087
		C    1.262507   0.012109  -0.073637
		H   -2.195289   0.050845  -0.405526
		H   -0.188893   1.536895   0.174465
		H    1.407448  -0.959441  -0.111522
		H    2.153096   0.660784   0.080211
*
