! B3LYP 6-31G
!TightSCF
%scf
 ConvForced true
 convergence tight
 MaxIter 500
end
 
%tddft 
 nroots 1
end

# 	10468
* xyz 0 1
		C   -1.186704  -0.280032  -0.043818
		O   -1.660606  -1.050801  -0.815736
		C    0.055850   0.471086  -0.250317
		C    1.245295   0.067456   0.168094
		H   -1.652880  -0.269033   0.965364
		H   -0.073616   1.394318  -0.698528
		H    1.213444  -0.822589   0.643232
		H    2.036332   0.582826   0.027764
*
