! B3LYP 6-31G
!TightSCF
%scf
 ConvForced true
 convergence tight
 MaxIter 500
end
 
%tddft 
 nroots 1
end

# 	28845
* xyz 0 1
		C   -0.589304  -0.480532   0.058197
		O   -0.592927  -1.669240  -0.023859
		C    0.615889   0.510012  -0.103614
		C    1.875214  -0.086533   0.043813
		H   -1.559751   0.074450   0.232609
		H    0.401004   1.463499   0.068852
		H    1.893977  -1.382953  -0.048611
		H    2.959903   0.244556   0.152669
*
