! B3LYP 6-31G
!TightSCF
%scf
 ConvForced true
 convergence tight
 MaxIter 500
end
 
%tddft 
 nroots 1
end

# 	20852
* xyz 0 1
		C   -0.586515  -0.440770  -0.019040
		O   -0.589883  -1.641386   0.007881
		C    0.662929   0.411205  -0.020400
		C    1.846180  -0.104190  -0.000798
		H   -1.657723   0.047950   0.097337
		H    0.439051   1.555149   0.180998
		H    1.891859  -1.180356   0.080835
		H    2.745314   0.465246   0.000576
*
