! B3LYP 6-31G
!TightSCF
%scf
 ConvForced true
 convergence tight
 MaxIter 500
end
 
%tddft 
 nroots 1
end

# 	15682
* xyz 0 1
		C   -1.175167  -0.342134  -0.006548
		O   -1.302848  -1.523391  -0.294652
		C    0.003692   0.524691  -0.095541
		C    1.204309  -0.030340   0.028207
		H   -2.066893   0.129023   0.305751
		H   -0.140224   1.664419  -0.121223
		H    1.296489  -1.154676   0.226326
		H    2.194941   0.686176  -0.002041
*
