! B3LYP 6-31G
!TightSCF
%scf
 ConvForced true
 convergence tight
 MaxIter 500
end
 
%tddft 
 nroots 1
end

# 	30083
* xyz 0 1
		C   -0.640266  -0.426167  -0.050172
		O   -0.544057  -1.652145   0.040843
		C    0.628125   0.427637   0.035498
		C    1.866590  -0.124359  -0.006615
		H   -1.619766   0.195618  -0.259198
		H    0.492768   1.538491   0.175704
		H    1.775286  -1.203090  -0.332415
		H    2.827466   0.406147   0.040469
*
