! B3LYP 6-31G
!TightSCF
%scf
 ConvForced true
 convergence tight
 MaxIter 500
end
 
%tddft 
 nroots 1
end

# 	27889
* xyz 0 1
		C   -0.496781  -0.396076  -0.075703
		O   -0.585064  -1.670782   0.049361
		C    0.640093   0.475084   0.061747
		C    1.781234  -0.147008  -0.031138
		H   -1.508600   0.122373  -0.251241
		H    0.183459   1.510713   0.197910
		H    1.869184  -1.365619  -0.224240
		H    2.771635   0.329738   0.050678
*
