! B3LYP 6-31G
!TightSCF
%scf
 ConvForced true
 convergence tight
 MaxIter 500
end
 
%tddft 
 nroots 1
end

# 	1488
* xyz 0 1
		C   -1.240041  -0.381200  -0.033958
		O   -1.553380  -1.201279   0.754151
		C    0.009192   0.380672   0.272662
		C    1.197532   0.005558  -0.112844
		H   -1.674959  -0.048642  -0.997417
		H   -0.160269   1.430683   0.695183
		H    1.359141  -0.937926  -0.567309
		H    2.102505   0.723064  -0.010965
*
