! B3LYP 6-31G
!TightSCF
%scf
 ConvForced true
 convergence tight
 MaxIter 500
end
 
%tddft 
 nroots 1
end

# 	14863
* xyz 0 1
		C   -1.218587  -0.375767   0.059288
		O   -1.310244  -1.419528  -0.411317
		C    0.026801   0.519091  -0.061706
		C    1.272349   0.057414   0.127634
		H   -2.070097   0.116476   0.475815
		H   -0.100684   1.566828  -0.632948
		H    1.168018  -1.032974   0.377701
		H    2.251094   0.514141   0.001279
*
