! B3LYP 6-31G
!TightSCF
%scf
 ConvForced true
 convergence tight
 MaxIter 500
end
 
%tddft 
 nroots 1
end

# 	1713
* xyz 0 1
		C   -1.170113  -0.349600  -0.053920
		O   -1.722668  -1.063423  -0.829955
		C   -0.005783   0.478836  -0.250571
		C    1.203259   0.044239   0.212733
		H   -1.502297  -0.345933   0.942300
		H   -0.231756   1.417480  -0.820007
		H    1.403935  -0.929559   0.672667
		H    2.043293   0.702243   0.068537
*
