! B3LYP 6-31G
!TightSCF
%scf
 ConvForced true
 convergence tight
 MaxIter 500
end
 
%tddft 
 nroots 1
end

# 	11577
* xyz 0 1
		C   -1.219928  -0.299700   0.017185
		O   -2.068528  -0.404879  -0.981632
		C    0.031148   0.468219  -0.326826
		C    1.198413   0.137890   0.264778
		H   -1.328940  -0.823347   1.009771
		H   -0.098835   0.957472  -1.118121
		H    1.269706  -0.603397   1.067377
		H    2.182290   0.606594   0.066643
*
