! B3LYP 6-31G
!TightSCF
%scf
 ConvForced true
 convergence tight
 MaxIter 500
end
 
%tddft 
 nroots 1
end

# 	31254
* xyz 0 1
		C   -0.576597  -0.377727  -0.052362
		O   -0.476251  -1.568599   0.031861
		C    0.584979   0.421789   0.035918
		C    1.779061  -0.248768  -0.031442
		H   -1.617271  -0.018482  -0.099814
		H    0.473845   1.649412   0.145740
		H    1.646307  -1.424991  -0.068096
		H    2.712959   0.380251   0.101968
*
