! B3LYP 6-31G
!TightSCF
%scf
 ConvForced true
 convergence tight
 MaxIter 500
end
 
%tddft 
 nroots 1
end

# 	24985
* xyz 0 1
		C   -0.519361  -0.403987   0.012822
		O   -0.557373  -1.580241  -0.000332
		C    0.572802   0.380553   0.026360
		C    1.808895  -0.181597  -0.055467
		H   -1.547627   0.089789  -0.185822
		H    0.372914   1.490317   0.038728
		H    1.936091  -1.127211   0.234560
		H    2.812948   0.339842   0.119231
*
