! B3LYP 6-31G
!TightSCF
%scf
 ConvForced true
 convergence tight
 MaxIter 500
end
 
%tddft 
 nroots 1
end

# 	7897
* xyz 0 1
		C   -1.171370  -0.307097  -0.001655
		O   -2.104013  -0.466055  -0.721686
		C   -0.048075   0.382830  -0.281377
		C    1.168531   0.047009   0.218294
		H   -1.238053  -0.721206   0.911931
		H   -0.103634   1.225279  -1.074228
		H    1.340794  -0.785410   0.860670
		H    2.218649   0.630803   0.108368
*
