! B3LYP 6-31G
!TightSCF
%scf
 ConvForced true
 convergence tight
 MaxIter 500
end
 
%tddft 
 nroots 1
end

# 	29222
* xyz 0 1
		C   -0.628778  -0.440294  -0.032817
		O   -0.541380  -1.559384   0.017752
		C    0.587242   0.384860   0.010005
		C    1.867372  -0.167561   0.007869
		H   -1.584360   0.038146  -0.003260
		H    0.514007   1.407095   0.068216
		H    2.149303  -1.231987  -0.147294
		H    2.681365   0.465270  -0.016769
*
