! B3LYP 6-31G
!TightSCF
%scf
 ConvForced true
 convergence tight
 MaxIter 500
end
 
%tddft 
 nroots 1
end

# 	23339
* xyz 0 1
		C   -0.574191  -0.430172  -0.024390
		O   -0.556817  -1.620064   0.006417
		C    0.621029   0.433366   0.064573
		C    1.806474  -0.161769  -0.015664
		H   -1.502866   0.116976  -0.099361
		H    0.585016   1.555557  -0.184588
		H    1.976287  -1.256954  -0.035227
		H    2.681195   0.452207  -0.085082
*
