! B3LYP 6-31G
!TightSCF
%scf
 ConvForced true
 convergence tight
 MaxIter 500
end
 
%tddft 
 nroots 1
end

# 	12796
* xyz 0 1
		C   -1.120601  -0.322566  -0.092080
		O   -1.952689  -0.648358  -0.834448
		C    0.046597   0.472950  -0.310003
		C    1.153471   0.120419   0.287863
		H   -1.396967  -0.706493   0.988265
		H   -0.119527   1.387419  -1.015266
		H    1.313001  -0.998871   0.852543
		H    2.043164   0.649112   0.114028
*
