! B3LYP 6-31G
!TightSCF
%scf
 ConvForced true
 convergence tight
 MaxIter 500
end
 
%tddft 
 nroots 1
end

# 	2806
* xyz 0 1
		C   -1.205256  -0.283779  -0.037139
		O   -1.360331  -1.285727  -0.668815
		C    0.011394   0.580093  -0.158450
		C    1.255444   0.015047   0.134745
		H   -2.004211  -0.134658   0.731229
		H   -0.196642   1.448160  -0.507591
		H    1.370637  -1.039590   0.513321
		H    2.101506   0.663617  -0.042110
*
