! B3LYP 6-31G
!TightSCF
%scf
 ConvForced true
 convergence tight
 MaxIter 500
end
 
%tddft 
 nroots 1
end

# 	17211
* xyz 0 1
		C   -1.207159  -0.333434  -0.012722
		O   -1.558102  -1.224774  -0.761775
		C   -0.008676   0.521892  -0.269145
		C    1.236020   0.015688   0.200555
		H   -1.812422  -0.027542   0.803832
		H   -0.040041   1.523309  -0.519664
		H    1.329433  -1.008076   0.527857
		H    2.028596   0.565165   0.028273
*
