! B3LYP 6-31G
!TightSCF
%scf
 ConvForced true
 convergence tight
 MaxIter 500
end
 
%tddft 
 nroots 1
end

# 	24088
* xyz 0 1
		C   -0.604326  -0.422718   0.041163
		O   -0.579483  -1.654561  -0.022798
		C    0.683879   0.424244  -0.064343
		C    1.828751  -0.125621   0.039232
		H   -1.719625   0.062448   0.230708
		H    0.569980   1.483718  -0.081602
		H    1.975946  -1.071882  -0.057537
		H    2.610609   0.517295   0.076496
*
