! B3LYP 6-31G
!TightSCF
%scf
 ConvForced true
 convergence tight
 MaxIter 500
end
 
%tddft 
 nroots 1
end

# 	11634
* xyz 0 1
		C   -1.173354  -0.429127  -0.031619
		O   -2.127208  -0.619587   0.616305
		C   -0.024439   0.427183   0.293761
		C    1.200305   0.070816  -0.131335
		H   -1.187025  -0.805562  -0.938847
		H   -0.169872   1.318450   1.072570
		H    1.325361  -0.812790  -0.902065
		H    2.116910   0.866279   0.006135
*
