! B3LYP 6-31G
!TightSCF
%scf
 ConvForced true
 convergence tight
 MaxIter 500
end
 
%tddft 
 nroots 1
end

# 	17249
* xyz 0 1
		C   -1.191469  -0.301796   0.050671
		O   -1.551536  -1.168354   0.832260
		C    0.045316   0.522858   0.201508
		C    1.266457   0.065927  -0.161763
		H   -1.896445  -0.153506  -1.062711
		H   -0.149398   1.467660   0.675683
		H    1.372007  -0.910365  -0.627651
		H    2.083179   0.532469   0.072662
*
