! B3LYP 6-31G
!TightSCF
%scf
 ConvForced true
 convergence tight
 MaxIter 500
end
 
%tddft 
 nroots 1
end

# 	13999
* xyz 0 1
		C   -1.315605  -0.369855   0.075091
		O   -2.245353  -0.367116   0.713415
		C    0.000859   0.337436   0.295902
		C    1.120484   0.140600  -0.343660
		H   -1.119065  -1.064378  -0.764957
		H    0.099713   1.189215   1.169728
		H    1.309634  -0.479121  -1.095153
		H    2.093805   0.612463  -0.096003
*
