! B3LYP 6-31G
!TightSCF
%scf
 ConvForced true
 convergence tight
 MaxIter 500
end
 
%tddft 
 nroots 1
end

# 	13407
* xyz 0 1
		C   -1.228319  -0.326231  -0.056028
		O   -1.417922  -1.321598  -0.679239
		C    0.025957   0.490964  -0.175034
		C    1.269127   0.050094   0.207952
		H   -2.086184   0.039505   0.628646
		H   -0.019620   1.505217  -0.538330
		H    1.281525  -1.053882   0.514855
		H    2.154379   0.612633   0.083912
*
