! B3LYP 6-31G
!TightSCF
%scf
 ConvForced true
 convergence tight
 MaxIter 500
end
 
%tddft 
 nroots 1
end

# 	30584
* xyz 0 1
		C   -0.608657  -0.420075   0.001836
		O   -0.590728  -1.630856  -0.014471
		C    0.674654   0.370374  -0.038756
		C    1.848104  -0.084852   0.042373
		H   -1.577345   0.043138   0.340121
		H    0.393433   1.400757  -0.110553
		H    1.961665  -1.168898  -0.038186
		H    2.726820   0.460433  -0.038168
*
