! B3LYP 6-31G
!TightSCF
%scf
 ConvForced true
 convergence tight
 MaxIter 500
end
 
%tddft 
 nroots 1
end

# 	955
* xyz 0 1
		C   -1.118271  -0.299222  -0.061098
		O   -2.028089  -0.506288  -0.943332
		C    0.043714   0.428469  -0.296059
		C    1.223079   0.079273   0.292602
		H   -1.414578  -0.821881   1.008660
		H    0.024121   1.060525  -1.157298
		H    1.089987  -0.547110   1.146584
		H    2.204182   0.576997   0.004464
*
