! B3LYP 6-31G
!TightSCF
%scf
 ConvForced true
 convergence tight
 MaxIter 500
end
 
%tddft 
 nroots 1
end

# 	32334
* xyz 0 1
		C   -0.637163  -0.435090   0.024430
		O   -0.532184  -1.634380  -0.027860
		C    0.622633   0.447195   0.014836
		C    1.841690  -0.143315  -0.011880
		H   -1.654015   0.086383   0.153225
		H    0.682077   1.585843  -0.278998
		H    1.877443  -1.380394   0.244431
		H    2.757861   0.459141  -0.022183
*
