! B3LYP 6-31G
!TightSCF
%scf
 ConvForced true
 convergence tight
 MaxIter 500
end
 
%tddft 
 nroots 1
end

# 	10763
* xyz 0 1
		C   -1.225170  -0.275151  -0.032546
		O   -1.309692  -1.434324   0.365139
		C   -0.054801   0.514277   0.130564
		C    1.187547   0.011624  -0.021586
		H   -2.019834   0.183813  -0.535894
		H   -0.234239   1.549025   0.465996
		H    1.443867  -1.018965  -0.398868
		H    2.191525   0.554870   0.146988
*
