! B3LYP 6-31G
!TightSCF
%scf
 ConvForced true
 convergence tight
 MaxIter 500
end
 
%tddft 
 nroots 1
end

# 	714
* xyz 0 1
		C   -1.162443  -0.333036  -0.037771
		O   -1.933581  -0.747130   0.806026
		C   -0.053246   0.501348   0.202098
		C    1.186516   0.078311  -0.170152
		H   -1.320168  -0.692236  -1.073715
		H   -0.223425   1.350010   0.895473
		H    1.295732  -0.852278  -0.791009
		H    2.141731   0.719245   0.117413
*
