! B3LYP 6-31G
!TightSCF
%scf
 ConvForced true
 convergence tight
 MaxIter 500
end
 
%tddft 
 nroots 1
end

# 	30169
* xyz 0 1
		C   -0.593813  -0.485399   0.067801
		O   -0.631844  -1.696111  -0.028631
		C    0.626878   0.437646  -0.089295
		C    1.900472  -0.051813  -0.002479
		H   -1.519313   0.334982   0.153277
		H    0.611966   1.561275   0.131021
		H    2.046808  -1.065115   0.258379
		H    2.834887   0.536278   0.207383
*
