! B3LYP 6-31G
!TightSCF
%scf
 ConvForced true
 convergence tight
 MaxIter 500
end
 
%tddft 
 nroots 1
end

# 	1887
* xyz 0 1
		C   -1.151575  -0.348427  -0.001898
		O   -1.470464  -1.354479   0.684387
		C    0.028314   0.556326   0.175203
		C    1.239427   0.043770  -0.111596
		H   -1.873320  -0.007301  -0.833684
		H   -0.160388   1.452760   0.697974
		H    1.248305  -0.958465  -0.544532
		H    2.150240   0.613549  -0.052960
*
