! B3LYP 6-31G
!TightSCF
%scf
 ConvForced true
 convergence tight
 MaxIter 500
end
 
%tddft 
 nroots 1
end

# 	17803
* xyz 0 1
		C   -1.210186  -0.344218   0.000180
		O   -1.424441  -1.446095   0.468641
		C   -0.050627   0.516055   0.213778
		C    1.156635  -0.046723  -0.089533
		H   -1.819952   0.152812  -0.763858
		H   -0.186118   1.621473   0.309898
		H    1.411819  -1.076481  -0.230391
		H    2.092409   0.583358   0.027587
*
