! B3LYP 6-31G
!TightSCF
%scf
 ConvForced true
 convergence tight
 MaxIter 500
end
 
%tddft 
 nroots 1
end

# 	7963
* xyz 0 1
		C   -1.208561  -0.350468   0.018984
		O   -1.311644  -1.472003   0.349751
		C    0.015037   0.477141   0.199843
		C    1.274140  -0.051732  -0.058783
		H   -2.021399   0.186628  -0.611506
		H   -0.140888   1.523916   0.237351
		H    1.409504  -1.077274  -0.211505
		H    1.990042   0.738080   0.076871
*
