! B3LYP 6-31G
!TightSCF
%scf
 ConvForced true
 convergence tight
 MaxIter 500
end
 
%tddft 
 nroots 1
end

# 	16758
* xyz 0 1
		C   -1.233949  -0.415301   0.025526
		O   -2.220675  -0.454695  -0.558576
		C    0.021068   0.400478  -0.426937
		C    1.183073   0.109555   0.193943
		H   -1.078495  -0.959343   0.953474
		H   -0.029642   1.110158  -1.107910
		H    1.336105  -0.690964   0.872070
		H    2.002683   0.857301   0.122678
*
