! B3LYP 6-31G
!TightSCF
%scf
 ConvForced true
 convergence tight
 MaxIter 500
end
 
%tddft 
 nroots 1
end

# 	8224
* xyz 0 1
		C   -1.210093  -0.356406  -0.042930
		O   -1.383672  -1.481497   0.429451
		C   -0.007510   0.480989   0.147939
		C    1.176896   0.006446  -0.133427
		H   -1.961642   0.280355  -0.597643
		H   -0.066066   1.578245   0.502473
		H    1.375825  -0.986971  -0.330629
		H    2.121611   0.495148   0.019111
*
