! B3LYP 6-31G
!TightSCF
%scf
 ConvForced true
 convergence tight
 MaxIter 500
end
 
%tddft 
 nroots 1
end

# 	27890
* xyz 0 1
		C   -0.595440  -0.404659  -0.045466
		O   -0.601928  -1.635167   0.014014
		C    0.644547   0.331751   0.025698
		C    1.874867  -0.079161  -0.027308
		H   -1.613836   0.096544   0.167297
		H    0.362167   1.467319  -0.030137
		H    2.036776  -1.042385   0.065987
		H    2.769290   0.509237   0.138543
*
