! B3LYP 6-31G
!TightSCF
%scf
 ConvForced true
 convergence tight
 MaxIter 500
end
 
%tddft 
 nroots 1
end

# 	28799
* xyz 0 1
		C   -0.544715  -0.400442  -0.106462
		O   -0.614353  -1.649157   0.052752
		C    0.677333   0.338586   0.053292
		C    1.815307  -0.076220  -0.022761
		H   -1.590093   0.287551   0.025037
		H    0.348121   1.396663   0.173878
		H    2.069870  -1.226484  -0.201895
		H    2.680227   0.656042   0.086408
*
