! B3LYP 6-31G
!TightSCF
%scf
 ConvForced true
 convergence tight
 MaxIter 500
end
 
%tddft 
 nroots 1
end

# 	7779
* xyz 0 1
		C   -1.254199  -0.293201   0.074993
		O   -2.206802  -0.196370   0.862451
		C    0.167848   0.248914   0.345746
		C    1.181902   0.156212  -0.406847
		H   -1.389437  -0.926466  -0.907335
		H    0.111193   0.668727   1.147346
		H    1.322264  -0.147606  -1.162224
		H    2.015672   0.464559   0.117233
*
