! B3LYP 6-31G
!TightSCF
%scf
 ConvForced true
 convergence tight
 MaxIter 500
end
 
%tddft 
 nroots 1
end

# 	10377
* xyz 0 1
		C   -1.173262  -0.422298   0.083940
		O   -2.152854  -0.457525   0.788640
		C    0.079222   0.323645   0.339078
		C    1.171474   0.208372  -0.343373
		H   -1.171721  -0.892888  -0.938866
		H   -0.005827   1.043485   1.311332
		H    1.270310  -0.541353  -1.295298
		H    1.980359   0.786524   0.009017
*
