! B3LYP 6-31G
!TightSCF
%scf
 ConvForced true
 convergence tight
 MaxIter 500
end
 
%tddft 
 nroots 1
end

# 	6141
* xyz 0 1
		C   -1.152590  -0.275218  -0.050507
		O   -1.230275  -1.526521  -0.115566
		C   -0.004288   0.625226  -0.050491
		C    1.187953   0.024176  -0.036751
		H   -2.220723   0.128872   0.034784
		H   -0.079362   1.658910  -0.210931
		H    1.327338  -1.107049   0.237672
		H    2.166690   0.520625   0.095950
*
