! B3LYP 6-31G
!TightSCF
%scf
 ConvForced true
 convergence tight
 MaxIter 500
end
 
%tddft 
 nroots 1
end

# 	24349
* xyz 0 1
		C   -0.533281  -0.458412  -0.037374
		O   -0.603021  -1.609146   0.025406
		C    0.577229   0.411754   0.013636
		C    1.868286  -0.104767   0.005519
		H   -1.494257   0.030402  -0.034110
		H    0.366352   1.485471   0.043583
		H    1.919845  -1.288472  -0.281516
		H    2.926999   0.349006   0.098129
*
