! B3LYP 6-31G
!TightSCF
%scf
 ConvForced true
 convergence tight
 MaxIter 500
end
 
%tddft 
 nroots 1
end

# 	12551
* xyz 0 1
		C   -1.152782  -0.357845  -0.004951
		O   -1.556333  -1.219025  -0.886068
		C    0.062883   0.475084  -0.150830
		C    1.253459   0.006925   0.129267
		H   -1.864993  -0.157191   0.912650
		H   -0.056765   1.523509  -0.532125
		H    1.432900  -0.973618   0.439017
		H    1.879930   0.685670   0.035850
*
