! B3LYP 6-31G
!TightSCF
%scf
 ConvForced true
 convergence tight
 MaxIter 500
end
 
%tddft 
 nroots 1
end

# 	26265
* xyz 0 1
		C   -0.610575  -0.454975  -0.002447
		O   -0.566526  -1.639637   0.001261
		C    0.645295   0.469562  -0.010676
		C    1.838270  -0.115162  -0.003818
		H   -1.603466   0.024536   0.045209
		H    0.394995   1.439929   0.055929
		H    1.874888  -1.294816   0.041575
		H    2.941158   0.285992   0.042590
*
