! B3LYP 6-31G
!TightSCF
%scf
 ConvForced true
 convergence tight
 MaxIter 500
end
 
%tddft 
 nroots 1
end

# 	10380
* xyz 0 1
		C   -1.187507  -0.330304  -0.016289
		O   -1.171113  -1.573992   0.031528
		C    0.017228   0.525312   0.042432
		C    1.284987  -0.001151  -0.037359
		H   -2.148198   0.306038  -0.231878
		H   -0.065999   1.597442   0.161022
		H    1.175144  -1.038045   0.063616
		H    2.063292   0.548132  -0.028937
*
