! B3LYP 6-31G
!TightSCF
%scf
 ConvForced true
 convergence tight
 MaxIter 500
end
 
%tddft 
 nroots 1
end

# 	2410
* xyz 0 1
		C   -1.204485  -0.345948   0.067481
		O   -1.546798  -1.205860   0.802433
		C    0.013937   0.482596   0.278998
		C    1.154952   0.095376  -0.236135
		H   -1.808640  -0.152558  -0.864448
		H   -0.096950   1.563111   0.516272
		H    1.264589  -1.014652  -0.500183
		H    2.190106   0.644276  -0.081749
*
