! B3LYP 6-31G
!TightSCF
%scf
 ConvForced true
 convergence tight
 MaxIter 500
end
 
%tddft 
 nroots 1
end

# 	5765
* xyz 0 1
		C   -1.189707  -0.351309  -0.016643
		O   -1.377030  -1.474496  -0.535565
		C    0.006903   0.484844  -0.181284
		C    1.222939  -0.057762   0.099867
		H   -2.045170   0.175463   0.628710
		H   -0.092591   1.641997  -0.398960
		H    1.327310  -1.124682   0.331852
		H    2.150004   0.692895   0.070116
*
