! B3LYP 6-31G
!TightSCF
%scf
 ConvForced true
 convergence tight
 MaxIter 500
end
 
%tddft 
 nroots 1
end

# 	3357
* xyz 0 1
		C   -1.251225  -0.414479  -0.070359
		O   -2.031438  -0.543712  -0.962361
		C    0.072791   0.339499  -0.307453
		C    1.210005   0.132380   0.274063
		H   -1.328261  -0.689882   1.137006
		H    0.059139   1.159879  -1.188660
		H    1.268991  -0.528921   1.051587
		H    2.006668   0.618947   0.018488
*
