! B3LYP 6-31G
!TightSCF
%scf
 ConvForced true
 convergence tight
 MaxIter 500
end
 
%tddft 
 nroots 1
end

# 	7630
* xyz 0 1
		C   -1.225446  -0.384406   0.061149
		O   -1.682937  -1.059723   0.941911
		C   -0.003915   0.445709   0.237050
		C    1.236839   0.075120  -0.176647
		H   -1.705799  -0.383266  -0.946959
		H    0.045570   1.465852   0.699094
		H    1.344923  -0.828932  -0.757709
		H    2.041949   0.688894  -0.027550
*
