! B3LYP 6-31G
!TightSCF
%scf
 ConvForced true
 convergence tight
 MaxIter 500
end
 
%tddft 
 nroots 1
end

# 	2565
* xyz 0 1
		C   -1.194373  -0.377552  -0.007244
		O   -1.329778  -1.474595   0.441712
		C    0.051617   0.521171   0.129628
		C    1.311697   0.031314  -0.098700
		H   -2.268497   0.207552  -0.400836
		H   -0.076406   1.540588   0.141539
		H    1.336223  -1.165125  -0.211463
		H    2.096829   0.754161  -0.049403
*
