! B3LYP 6-31G
!TightSCF
%scf
 ConvForced true
 convergence tight
 MaxIter 500
end
 
%tddft 
 nroots 1
end

# 	362
* xyz 0 1
		C   -1.236236  -0.274782   0.000417
		O   -1.269990  -1.435605  -0.349049
		C   -0.036260   0.587180  -0.110246
		C    1.136506  -0.047230   0.018695
		H   -1.996974   0.243752   0.447656
		H   -0.137591   1.562133  -0.301173
		H    1.346674  -1.122010   0.244835
		H    2.169713   0.521616   0.043251
*
