! B3LYP 6-31G
!TightSCF
%scf
 ConvForced true
 convergence tight
 MaxIter 500
end
 
%tddft 
 nroots 1
end

# 	1643
* xyz 0 1
		C   -1.166695  -0.270912  -0.064827
		O   -1.216996  -1.432952  -0.140556
		C    0.024345   0.501756   0.040266
		C    1.247277   0.030570   0.051392
		H   -2.152369   0.180272  -0.051049
		H    0.010032   1.554061   0.006661
		H    1.072122  -1.147658   0.037398
		H    2.150811   0.605861   0.091704
*
