! B3LYP 6-31G
!TightSCF
%scf
 ConvForced true
 convergence tight
 MaxIter 500
end
 
%tddft 
 nroots 1
end

# 	27596
* xyz 0 1
		C   -0.509922  -0.414190   0.035780
		O   -0.589509  -1.633298  -0.020557
		C    0.637201   0.423282  -0.031453
		C    1.784378  -0.147820   0.021753
		H   -1.433408   0.055414   0.052647
		H    0.474389   1.555035  -0.027647
		H    1.877182  -1.198004   0.077176
		H    2.647144   0.412198  -0.095348
*
