! B3LYP 6-31G
!TightSCF
%scf
 ConvForced true
 convergence tight
 MaxIter 500
end
 
%tddft 
 nroots 1
end

# 	5541
* xyz 0 1
		C   -1.209208  -0.320372  -0.022121
		O   -1.203760  -1.533571  -0.037027
		C    0.043722   0.479126  -0.094937
		C    1.304543  -0.017524  -0.040334
		H   -2.246613   0.272237   0.178117
		H   -0.204309   1.478182   0.029775
		H    1.344198  -1.006348   0.130063
		H    2.133253   0.628830  -0.143309
*
