! B3LYP 6-31G
!TightSCF
%scf
 ConvForced true
 convergence tight
 MaxIter 500
end
 
%tddft 
 nroots 1
end

# 	26466
* xyz 0 1
		C   -0.641205  -0.430295   0.000113
		O   -0.543152  -1.638235  -0.002411
		C    0.608835   0.462015   0.012064
		C    1.877247  -0.144193  -0.017026
		H   -1.585170   0.006795  -0.027451
		H    0.324966   1.487253   0.008681
		H    1.837741  -1.142565   0.136940
		H    2.953486   0.228131  -0.024650
*
