! B3LYP 6-31G
!TightSCF
%scf
 ConvForced true
 convergence tight
 MaxIter 500
end
 
%tddft 
 nroots 1
end

# 	16936
* xyz 0 1
		C   -1.165221  -0.381713   0.064060
		O   -1.846964  -0.819820   1.052980
		C    0.046062   0.326440   0.243627
		C    1.176390   0.104651  -0.245968
		H   -1.554866  -0.639047  -1.111333
		H   -0.047490   1.313584   0.770283
		H    1.329607  -0.706610  -0.736584
		H    2.046356   0.843845  -0.083617
*
