! B3LYP 6-31G
!TightSCF
%scf
 ConvForced true
 convergence tight
 MaxIter 500
end
 
%tddft 
 nroots 1
end

# 	9160
* xyz 0 1
		C   -1.208784  -0.323061  -0.002270
		O   -1.180361  -1.554474   0.034223
		C    0.044193   0.510807   0.024717
		C    1.206937   0.002076   0.039046
		H   -2.217809   0.317263  -0.081528
		H   -0.235073   1.612846   0.111375
		H    1.357271  -1.102617  -0.167995
		H    2.201568   0.509758   0.031575
*
