! B3LYP 6-31G
!TightSCF
%scf
 ConvForced true
 convergence tight
 MaxIter 500
end
 
%tddft 
 nroots 1
end

# 	27199
* xyz 0 1
		C   -0.591911  -0.431120  -0.014635
		O   -0.528096  -1.589265   0.010846
		C    0.606450   0.435920  -0.043240
		C    1.821686  -0.183828   0.032778
		H   -1.519690   0.076126   0.121232
		H    0.493909   1.407737   0.166639
		H    1.692638  -1.251013  -0.174024
		H    2.759011   0.352594   0.022282
*
