! B3LYP 6-31G
!TightSCF
%scf
 ConvForced true
 convergence tight
 MaxIter 500
end
 
%tddft 
 nroots 1
end

# 	1008
* xyz 0 1
		C   -1.241539  -0.426890  -0.040059
		O   -1.515191  -1.353811  -0.689318
		C   -0.020970   0.453339  -0.211675
		C    1.183664   0.048676   0.085505
		H   -1.880037  -0.051679   0.864469
		H   -0.192810   1.477745  -0.296931
		H    1.589402  -0.941494   0.284164
		H    2.084765   0.762221   0.053863
*
