! B3LYP 6-31G
!TightSCF
%scf
 ConvForced true
 convergence tight
 MaxIter 500
end
 
%tddft 
 nroots 1
end

# 	24174
* xyz 0 1
		C   -0.564746  -0.466458   0.030168
		O   -0.594458  -1.612327  -0.019321
		C    0.646981   0.417485   0.004147
		C    1.824354  -0.108760   0.012975
		H   -1.659635   0.117100  -0.102492
		H    0.438589   1.342872  -0.043088
		H    1.967656  -1.212200   0.138822
		H    2.911659   0.466887  -0.267185
*
