! B3LYP 6-31G
!TightSCF
%scf
 ConvForced true
 convergence tight
 MaxIter 500
end
 
%tddft 
 nroots 1
end

# 	23029
* xyz 0 1
		C   -0.610045  -0.444590   0.037141
		O   -0.571808  -1.610055  -0.015736
		C    0.641447   0.363524  -0.035257
		C    1.846292  -0.118594  -0.008884
		H   -1.569784   0.287420   0.038484
		H    0.584635   1.472721   0.035719
		H    2.010196  -1.090735   0.156220
		H    2.630986   0.542906   0.106787
*
