! B3LYP 6-31G
!TightSCF
%scf
 ConvForced true
 convergence tight
 MaxIter 500
end
 
%tddft 
 nroots 1
end

# 	17243
* xyz 0 1
		C   -1.184924  -0.340717   0.034647
		O   -1.293403  -1.479697   0.353904
		C    0.029094   0.532325   0.135265
		C    1.316854   0.033162  -0.064409
		H   -2.208968   0.167923  -0.513521
		H   -0.283700   1.632931   0.274992
		H    1.418066  -1.096364  -0.354235
		H    2.224697   0.546582   0.171329
*
