! B3LYP 6-31G
!TightSCF
%scf
 ConvForced true
 convergence tight
 MaxIter 500
end
 
%tddft 
 nroots 1
end

# 	30924
* xyz 0 1
		C   -0.573417  -0.422581   0.083974
		O   -0.611659  -1.659962  -0.053540
		C    0.661992   0.379770  -0.031756
		C    1.838659  -0.044921   0.012806
		H   -1.554690   0.047935   0.179454
		H    0.496139   1.437492  -0.366100
		H    1.906636  -1.220644   0.225338
		H    2.853283   0.357555   0.014326
*
