! B3LYP 6-31G
!TightSCF
%scf
 ConvForced true
 convergence tight
 MaxIter 500
end
 
%tddft 
 nroots 1
end

# 	29043
* xyz 0 1
		C   -0.616686  -0.408379   0.022458
		O   -0.546285  -1.619277  -0.008055
		C    0.596159   0.419201  -0.015237
		C    1.867868  -0.174282   0.014942
		H   -1.535477   0.032309  -0.136618
		H    0.476313   1.651896   0.133225
		H    2.125742  -1.178129   0.083007
		H    2.551932   0.427213  -0.221461
*
