! B3LYP 6-31G
!TightSCF
%scf
 ConvForced true
 convergence tight
 MaxIter 500
end
 
%tddft 
 nroots 1
end

# 	826
* xyz 0 1
		C   -1.210642  -0.330685  -0.074798
		O   -1.535634  -1.219332   0.670877
		C    0.004850   0.503780   0.113553
		C    1.169810   0.046228  -0.163866
		H   -1.824227  -0.172114  -0.880340
		H   -0.059154   1.564123   0.562051
		H    1.331294  -1.049119  -0.368909
		H    2.080328   0.682243   0.088901
*
