! B3LYP 6-31G
!TightSCF
%scf
 ConvForced true
 convergence tight
 MaxIter 500
end
 
%tddft 
 nroots 1
end

# 	2366
* xyz 0 1
		C   -1.246422  -0.338456   0.046923
		O   -1.396618  -1.360496   0.673378
		C    0.020474   0.540701   0.225756
		C    1.234376  -0.010852  -0.018404
		H   -1.875322  -0.064130  -0.707064
		H   -0.223478   1.658126   0.331831
		H    1.425060  -1.008069  -0.403204
		H    2.119664   0.650945  -0.110448
*
