! B3LYP 6-31G
!TightSCF
%scf
 ConvForced true
 convergence tight
 MaxIter 500
end
 
%tddft 
 nroots 1
end

# 	23486
* xyz 0 1
		C   -0.588831  -0.421105   0.013116
		O   -0.596898  -1.641270  -0.005038
		C    0.630229   0.408185  -0.010566
		C    1.870358  -0.117632  -0.005826
		H   -1.383146  -0.045541  -0.034283
		H    0.399551   1.556144   0.069514
		H    1.959717  -1.168921   0.107279
		H    2.680555   0.502799  -0.022938
*
