! B3LYP 6-31G
!TightSCF
%scf
 ConvForced true
 convergence tight
 MaxIter 500
end
 
%tddft 
 nroots 1
end

# 	4091
* xyz 0 1
		C   -1.180979  -0.267675  -0.015370
		O   -1.828729  -0.822463  -0.898309
		C    0.043851   0.525057  -0.212852
		C    1.244301   0.020655   0.134011
		H   -1.356328  -0.625962   1.027383
		H   -0.129129   1.297938  -0.836839
		H    1.222037  -0.858200   0.778210
		H    2.003681   0.682023   0.007383
*
