! B3LYP 6-31G
!TightSCF
%scf
 ConvForced true
 convergence tight
 MaxIter 500
end
 
%tddft 
 nroots 1
end

# 	27079
* xyz 0 1
		C   -0.603588  -0.407017  -0.060314
		O   -0.558676  -1.624267   0.031821
		C    0.586003   0.423534  -0.002489
		C    1.881684  -0.167166   0.003750
		H   -1.642580  -0.002685   0.116032
		H    0.573861   1.516104   0.175100
		H    2.135603  -1.244212  -0.187339
		H    2.561741   0.572113   0.109927
*
