! B3LYP 6-31G
!TightSCF
%scf
 ConvForced true
 convergence tight
 MaxIter 500
end
 
%tddft 
 nroots 1
end

# 	1640
* xyz 0 1
		C   -1.181975  -0.267922  -0.056225
		O   -1.151582  -1.434404   0.055414
		C    0.042060   0.564755   0.070473
		C    1.197053   0.061211  -0.073200
		H   -2.083793   0.179853  -0.279488
		H   -0.014659   1.550922   0.103524
		H    0.997687  -1.150391  -0.031848
		H    2.173707   0.564822   0.116275
*
