! B3LYP 6-31G
!TightSCF
%scf
 ConvForced true
 convergence tight
 MaxIter 500
end
 
%tddft 
 nroots 1
end

# 	24048
* xyz 0 1
		C   -0.552442  -0.398968   0.043657
		O   -0.613600  -1.683700  -0.039585
		C    0.653030   0.443630   0.004241
		C    1.848698  -0.122586   0.001825
		H   -1.609433  -0.036303   0.157913
		H    0.490485   1.424944  -0.313457
		H    1.994129  -1.165387   0.279811
		H    2.632820   0.663753  -0.115196
*
