! B3LYP 6-31G
!TightSCF
%scf
 ConvForced true
 convergence tight
 MaxIter 500
end
 
%tddft 
 nroots 1
end

# 	31882
* xyz 0 1
		C   -0.617402  -0.425238  -0.079261
		O   -0.582514  -1.590139   0.038249
		C    0.666893   0.299411   0.045817
		C    1.823805  -0.085296  -0.037348
		H   -1.374649   0.196505  -0.018532
		H    0.629014   1.364047   0.201363
		H    1.997225  -1.142124   0.023228
		H    2.629761   0.597056   0.042190
*
