! B3LYP 6-31G
!TightSCF
%scf
 ConvForced true
 convergence tight
 MaxIter 500
end
 
%tddft 
 nroots 1
end

# 	22537
* xyz 0 1
		C   -0.526877  -0.450933   0.024753
		O   -0.612099  -1.658175  -0.018257
		C    0.646326   0.481255   0.018978
		C    1.848255  -0.111786  -0.005244
		H   -1.621439  -0.074645  -0.051144
		H    0.335182   1.468530  -0.154879
		H    1.747865  -1.344135   0.139263
		H    2.777787   0.440957  -0.116569
*
