! B3LYP 6-31G
!TightSCF
%scf
 ConvForced true
 convergence tight
 MaxIter 500
end
 
%tddft 
 nroots 1
end

# 	6774
* xyz 0 1
		C   -1.188068  -0.373525   0.110219
		O   -1.845312  -0.859947   0.861724
		C    0.081651   0.420395   0.349027
		C    1.222472   0.069821  -0.260924
		H   -1.419564  -0.331675  -1.056378
		H   -0.148972   1.192004   0.910608
		H    1.101801  -0.821530  -0.876984
		H    2.194783   0.743296  -0.141613
*
