! B3LYP 6-31G
!TightSCF
%scf
 ConvForced true
 convergence tight
 MaxIter 500
end
 
%tddft 
 nroots 1
end

# 	9318
* xyz 0 1
		C   -1.149438  -0.439394  -0.084459
		O   -2.188328  -0.309495  -0.666510
		C    0.004688   0.438257  -0.231490
		C    1.203641   0.133322   0.302927
		H   -1.026923  -1.010599   0.551519
		H   -0.280304   1.114807  -0.882892
		H    1.226827  -0.612546   0.942953
		H    2.188050   0.630685   0.037689
*
