! B3LYP 6-31G
!TightSCF
%scf
 ConvForced true
 convergence tight
 MaxIter 500
end
 
%tddft 
 nroots 1
end

# 	6653
* xyz 0 1
		C   -1.160922  -0.289229   0.036125
		O   -1.702416  -0.886018   0.968611
		C    0.090372   0.415927   0.233091
		C    1.216119   0.083278  -0.210392
		H   -1.664864  -0.283502  -1.088607
		H   -0.025738   1.224030   0.961860
		H    1.257525  -0.799406  -0.864857
		H    2.038985   0.547968  -0.067290
*
