! B3LYP 6-31G
!TightSCF
%scf
 ConvForced true
 convergence tight
 MaxIter 500
end
 
%tddft 
 nroots 1
end

# 	14155
* xyz 0 1
		C   -1.167192  -0.327502  -0.078199
		O   -1.856801  -0.704801  -0.958239
		C    0.028361   0.482722  -0.302811
		C    1.193651   0.107031   0.292794
		H   -1.549243  -0.592696   0.899708
		H   -0.069585   1.237405  -0.892159
		H    1.123155  -0.929069   0.969507
		H    2.293473   0.700607   0.039082
*
