! B3LYP 6-31G
!TightSCF
%scf
 ConvForced true
 convergence tight
 MaxIter 500
end
 
%tddft 
 nroots 1
end

# 	31247
* xyz 0 1
		C   -0.549499  -0.392853  -0.014107
		O   -0.616846  -1.688698   0.014194
		C    0.660490   0.406857   0.036858
		C    1.855812  -0.078232   0.008795
		H   -1.503999   0.181094  -0.291918
		H    0.406702   1.313954   0.067491
		H    1.858494  -1.280335  -0.149344
		H    2.561936   0.595151  -0.230147
*
