! B3LYP 6-31G
!TightSCF
%scf
 ConvForced true
 convergence tight
 MaxIter 500
end
 
%tddft 
 nroots 1
end

# 	9966
* xyz 0 1
		C   -1.166029  -0.331201   0.020846
		O   -1.403698  -1.356940  -0.581783
		C   -0.001150   0.568734  -0.174673
		C    1.213810  -0.012825   0.159624
		H   -1.923663   0.065419   0.694743
		H   -0.059297   1.523748  -0.596420
		H    1.310624  -1.016891   0.509213
		H    2.004074   0.549783  -0.043244
*
