! B3LYP 6-31G
!TightSCF
%scf
 ConvForced true
 convergence tight
 MaxIter 500
end
 
%tddft 
 nroots 1
end

# 	2302
* xyz 0 1
		C   -1.180717  -0.282892  -0.044942
		O   -1.227659  -1.412892  -0.370899
		C    0.003263   0.550290  -0.129107
		C    1.239476  -0.058235  -0.001690
		H   -2.113539   0.152293   0.516385
		H   -0.129668   1.754923  -0.341998
		H    1.241020  -1.243394   0.159054
		H    2.197999   0.485323   0.205928
*
