! B3LYP 6-31G
!TightSCF
%scf
 ConvForced true
 convergence tight
 MaxIter 500
end
 
%tddft 
 nroots 1
end

# 	19955
* xyz 0 1
		C   -1.217806  -0.306199   0.007683
		O   -1.970439  -0.690957   0.844870
		C    0.002793   0.439587   0.285717
		C    1.202135   0.055140  -0.199255
		H   -1.340120  -0.522972  -0.979498
		H   -0.109885   1.270751   0.931878
		H    1.310374  -0.882542  -0.835606
		H    2.150120   0.656298  -0.008089
*
