! B3LYP 6-31G
!TightSCF
%scf
 ConvForced true
 convergence tight
 MaxIter 500
end
 
%tddft 
 nroots 1
end

# 	10218
* xyz 0 1
		C   -1.091180  -0.390809   0.142394
		O   -2.086508  -0.368044   0.887665
		C    0.112764   0.362410   0.422059
		C    1.197241   0.182040  -0.300796
		H   -1.076918  -0.975790  -0.975162
		H   -0.049779   1.189393   1.004157
		H    1.180266  -0.649680  -1.134371
		H    1.913148   0.689419  -0.053224
*
