! B3LYP 6-31G
!TightSCF
%scf
 ConvForced true
 convergence tight
 MaxIter 500
end
 
%tddft 
 nroots 1
end

# 	20962
* xyz 0 1
		C   -0.581573  -0.437673   0.056692
		O   -0.565628  -1.648861  -0.028292
		C    0.636058   0.477238  -0.031899
		C    1.823278  -0.178318   0.001153
		H   -1.499954   0.168687   0.010821
		H    0.482367   1.467076  -0.062554
		H    1.858793  -1.158106   0.179960
		H    2.734717   0.598319   0.005847
*
