! B3LYP 6-31G
!TightSCF
%scf
 ConvForced true
 convergence tight
 MaxIter 500
end
 
%tddft 
 nroots 1
end

# 	23689
* xyz 0 1
		C   -0.571705  -0.510610  -0.018648
		O   -0.649308  -1.641686   0.001456
		C    0.647739   0.414596  -0.003668
		C    1.902158  -0.073652  -0.009232
		H   -1.456510   0.101680   0.219663
		H    0.509652   1.632784  -0.059698
		H    2.008539  -1.112937   0.047727
		H    2.676235   0.691033   0.146613
*
