! B3LYP 6-31G
!TightSCF
%scf
 ConvForced true
 convergence tight
 MaxIter 500
end
 
%tddft 
 nroots 1
end

# 	1999
* xyz 0 1
		C   -1.132855  -0.347338  -0.119385
		O   -2.233618  -0.056563  -0.721284
		C    0.072232   0.431675  -0.286065
		C    1.229342   0.048991   0.324097
		H   -1.167538  -1.210025   0.721670
		H   -0.011679   0.985803  -1.061064
		H    1.231970  -0.376303   1.181552
		H    2.121267   0.490541   0.017379
*
