! B3LYP 6-31G
!TightSCF
%scf
 ConvForced true
 convergence tight
 MaxIter 500
end
 
%tddft 
 nroots 1
end

# 	4078
* xyz 0 1
		C   -1.208130  -0.390884  -0.065341
		O   -2.249341  -0.335255  -0.521811
		C   -0.056661   0.380660  -0.319784
		C    1.167096   0.039835   0.274000
		H   -1.050405  -1.073641   0.570930
		H   -0.068120   1.309615  -0.970061
		H    1.419906  -0.717158   1.014815
		H    2.071404   0.732645   0.004730
*
