! B3LYP 6-31G
!TightSCF
%scf
 ConvForced true
 convergence tight
 MaxIter 500
end
 
%tddft 
 nroots 1
end

# 	25696
* xyz 0 1
		C   -0.607706  -0.391198  -0.013825
		O   -0.495819  -1.605054   0.010195
		C    0.636363   0.427870   0.003362
		C    1.745470  -0.229463   0.006879
		H   -1.413917   0.253843  -0.065940
		H    0.543150   1.546868   0.089653
		H    1.864362  -1.287262  -0.078119
		H    2.715005   0.554485  -0.061887
*
