! B3LYP 6-31G
!TightSCF
%scf
 ConvForced true
 convergence tight
 MaxIter 500
end
 
%tddft 
 nroots 1
end

# 	5861
* xyz 0 1
		C   -1.189082  -0.301960   0.031250
		O   -1.243269  -1.484509  -0.114177
		C   -0.052179   0.519062  -0.013998
		C    1.250920  -0.010895  -0.005200
		H   -2.133694   0.145223   0.209663
		H   -0.013972   1.531270  -0.247908
		H    1.379209  -0.986586   0.157679
		H    2.066071   0.531483   0.029014
*
