! B3LYP 6-31G
!TightSCF
%scf
 ConvForced true
 convergence tight
 MaxIter 500
end
 
%tddft 
 nroots 1
end

# 	11304
* xyz 0 1
		C   -1.212014  -0.316646  -0.030524
		O   -1.304029  -1.489284  -0.375036
		C    0.006309   0.419355  -0.157438
		C    1.188308  -0.020425   0.020917
		H   -2.022554   0.310118   0.413104
		H   -0.255437   1.463289  -0.238941
		H    1.517745  -0.972265   0.358149
		H    2.079122   0.564326   0.072182
*
