! B3LYP 6-31G
!TightSCF
%scf
 ConvForced true
 convergence tight
 MaxIter 500
end
 
%tddft 
 nroots 1
end

# 	2403
* xyz 0 1
		C   -1.206957  -0.311497  -0.016969
		O   -1.256769  -1.463577   0.244620
		C   -0.001773   0.512998   0.125149
		C    1.232384   0.044180  -0.122344
		H   -2.270865   0.105370  -0.296859
		H   -0.101204   1.653997   0.129620
		H    1.331520  -1.086764  -0.087386
		H    2.299568   0.605237  -0.053174
*
