! B3LYP 6-31G
!TightSCF
%scf
 ConvForced true
 convergence tight
 MaxIter 500
end
 
%tddft 
 nroots 1
end

# 	21192
* xyz 0 1
		C   -0.600748  -0.424175  -0.021430
		O   -0.572317  -1.641915   0.005303
		C    0.597363   0.410354   0.026903
		C    1.884183  -0.113096  -0.028777
		H   -1.670000   0.197685  -0.013514
		H    0.431753   1.427668   0.052318
		H    2.031579  -1.183911   0.194869
		H    2.801403   0.402197  -0.042617
*
