! B3LYP 6-31G
!TightSCF
%scf
 ConvForced true
 convergence tight
 MaxIter 500
end
 
%tddft 
 nroots 1
end

# 	25596
* xyz 0 1
		C   -0.524553  -0.410699  -0.079936
		O   -0.626857  -1.658154   0.039582
		C    0.621410   0.390895   0.044842
		C    1.860870  -0.100177   0.003173
		H   -1.450771   0.158908  -0.039619
		H    0.364857   1.431681   0.117495
		H    2.043313  -1.182398  -0.242710
		H    2.631638   0.604002  -0.077102
*
