! B3LYP 6-31G
!TightSCF
%scf
 ConvForced true
 convergence tight
 MaxIter 500
end
 
%tddft 
 nroots 1
end

# 	619
* xyz 0 1
		C   -1.214363  -0.298668   0.023265
		O   -2.184671  -0.308371   0.650782
		C    0.001792   0.547593   0.331490
		C    1.164270   0.206011  -0.391347
		H   -1.226073  -1.059647  -0.797097
		H   -0.001581   0.901386   1.314643
		H    1.351992  -0.518397  -1.045956
		H    2.151867   0.495756  -0.025055
*
