! B3LYP 6-31G
!TightSCF
%scf
 ConvForced true
 convergence tight
 MaxIter 500
end
 
%tddft 
 nroots 1
end

# 	15010
* xyz 0 1
		C   -1.192734  -0.356676   0.040844
		O   -1.678161  -1.196172   0.780115
		C   -0.001533   0.509387   0.200891
		C    1.200258   0.086702  -0.158936
		H   -1.675096  -0.261400  -0.926887
		H   -0.161323   1.465158   0.741992
		H    1.395417  -0.795583  -0.565650
		H    2.134996   0.586773  -0.008267
*
