! B3LYP 6-31G
!TightSCF
%scf
 ConvForced true
 convergence tight
 MaxIter 500
end
 
%tddft 
 nroots 1
end

# 	27350
* xyz 0 1
		C   -0.617062  -0.417976  -0.063222
		O   -0.528715  -1.615023   0.030233
		C    0.617599   0.436381   0.124579
		C    1.814323  -0.181011  -0.058946
		H   -1.643689   0.035117  -0.303684
		H    0.686584   1.556810  -0.134685
		H    1.987286  -1.208539  -0.023566
		H    2.715750   0.447196  -0.049415
*
