! B3LYP 6-31G
!TightSCF
%scf
 ConvForced true
 convergence tight
 MaxIter 500
end
 
%tddft 
 nroots 1
end

# 	561
* xyz 0 1
		C   -1.268274  -0.336498  -0.003243
		O   -1.303494  -1.491887  -0.193689
		C    0.045274   0.521560  -0.153867
		C    1.236043   0.036814  -0.025040
		H   -2.208527   0.124174   0.524380
		H   -0.151660   1.473089  -0.457307
		H    1.349093  -0.966448   0.214054
		H    2.295727   0.618005   0.110318
*
