! B3LYP 6-31G
!TightSCF
%scf
 ConvForced true
 convergence tight
 MaxIter 500
end
 
%tddft 
 nroots 1
end

# 	15412
* xyz 0 1
		C   -1.144107  -0.398000  -0.029911
		O   -1.640352  -1.121427  -0.861765
		C    0.027183   0.476334  -0.189722
		C    1.218295   0.056452   0.169194
		H   -1.740077  -0.127202   0.853266
		H   -0.219083   1.459757  -0.615995
		H    1.386417  -1.008613   0.596362
		H    2.138960   0.692838   0.047156
*
