! B3LYP 6-31G
!TightSCF
%scf
 ConvForced true
 convergence tight
 MaxIter 500
end
 
%tddft 
 nroots 1
end

# 	30276
* xyz 0 1
		C   -0.627888  -0.466128  -0.085527
		O   -0.600565  -1.638693   0.056748
		C    0.670400   0.426094   0.081200
		C    1.865263  -0.092760  -0.069608
		H   -1.578411   0.035392  -0.357833
		H    0.623892   1.466141   0.315705
		H    2.172305  -1.158069  -0.037440
		H    2.567280   0.500892   0.085026
*
