! B3LYP 6-31G
!TightSCF
%scf
 ConvForced true
 convergence tight
 MaxIter 500
end
 
%tddft 
 nroots 1
end

# 	18687
* xyz 0 1
		C   -1.255726  -0.289600  -0.018161
		O   -1.554189  -1.189160   0.701264
		C    0.032082   0.507075   0.201481
		C    1.200037  -0.009606  -0.054853
		H   -1.731095  -0.241910  -0.931180
		H   -0.048164   1.493435   0.652599
		H    1.318770  -0.951800  -0.553573
		H    2.073839   0.593242   0.004351
*
