! B3LYP 6-31G
!TightSCF
%scf
 ConvForced true
 convergence tight
 MaxIter 500
end
 
%tddft 
 nroots 1
end

# 	3735
* xyz 0 1
		C   -1.160585  -0.434387   0.057047
		O   -1.962870  -0.767814   0.915990
		C    0.016036   0.351425   0.354262
		C    1.155767   0.078803  -0.211938
		H   -1.471683  -0.537709  -1.078383
		H   -0.073101   1.324261   0.956020
		H    1.458912  -0.719648  -0.919403
		H    2.045439   0.705843  -0.082391
*
