! B3LYP 6-31G
!TightSCF
%scf
 ConvForced true
 convergence tight
 MaxIter 500
end
 
%tddft 
 nroots 1
end

# 	29719
* xyz 0 1
		C   -0.594399  -0.449596  -0.079506
		O   -0.639624  -1.693500   0.034750
		C    0.669794   0.399476   0.022441
		C    1.901269  -0.033702   0.026420
		H   -1.564217   0.186310   0.098228
		H    0.592090   1.404680   0.108366
		H    1.903349  -1.202268  -0.277899
		H    2.662138   0.714613  -0.113095
*
