! B3LYP 6-31G
!TightSCF
%scf
 ConvForced true
 convergence tight
 MaxIter 500
end
 
%tddft 
 nroots 1
end

# 	3961
* xyz 0 1
		C   -1.157397  -0.327104  -0.027185
		O   -1.188399  -1.455813   0.136607
		C    0.010178   0.591668   0.075317
		C    1.238879   0.025145  -0.059871
		H   -2.227984   0.123047  -0.336758
		H   -0.094447   1.625551   0.196216
		H    1.252679  -1.130636  -0.214230
		H    2.222577   0.566178   0.133128
*
