! B3LYP 6-31G
!TightSCF
%scf
 ConvForced true
 convergence tight
 MaxIter 500
end
 
%tddft 
 nroots 1
end

# 	8857
* xyz 0 1
		C   -1.196758  -0.390631   0.163053
		O   -2.189308  -0.479442   0.801592
		C    0.055795   0.390575   0.339596
		C    1.154661   0.147062  -0.254455
		H   -1.169674  -0.973349  -0.934428
		H    0.030572   1.293151   1.083840
		H    1.286773  -0.695502  -1.060322
		H    2.035701   0.748366  -0.141133
*
