! B3LYP 6-31G
!TightSCF
%scf
 ConvForced true
 convergence tight
 MaxIter 500
end
 
%tddft 
 nroots 1
end

# 	19815
* xyz 0 1
		C   -1.259338  -0.367998  -0.067232
		O   -1.883852  -0.719514  -0.961426
		C    0.002203   0.492910  -0.244682
		C    1.212191  -0.001429   0.202688
		H   -1.529440  -0.737877   0.871893
		H   -0.112988   1.597107  -0.709014
		H    1.307501  -0.916294   0.746370
		H    2.212879   0.665407   0.164167
*
