! B3LYP 6-31G
!TightSCF
%scf
 ConvForced true
 convergence tight
 MaxIter 500
end
 
%tddft 
 nroots 1
end

# 	11000
* xyz 0 1
		C   -1.133148  -0.297718   0.039517
		O   -1.236537  -1.604977  -0.037145
		C    0.051389   0.479201  -0.005743
		C    1.201709   0.029241   0.036703
		H   -2.250202   0.264444   0.304949
		H   -0.050285   1.550778  -0.335770
		H    1.242340  -1.060812   0.245813
		H    2.149306   0.666917  -0.281022
*
