! B3LYP 6-31G
!TightSCF
%scf
 ConvForced true
 convergence tight
 MaxIter 500
end
 
%tddft 
 nroots 1
end

# 	22622
* xyz 0 1
		C   -0.589049  -0.468166  -0.058970
		O   -0.589881  -1.636053   0.035830
		C    0.631101   0.410946   0.056466
		C    1.840543  -0.103789  -0.058604
		H   -1.667476   0.236961  -0.193292
		H    0.589774   1.532888   0.205493
		H    2.073132  -0.991095   0.072807
		H    2.887089   0.379246   0.090752
*
