! B3LYP 6-31G
!TightSCF
%scf
 ConvForced true
 convergence tight
 MaxIter 500
end
 
%tddft 
 nroots 1
end

# 	5144
* xyz 0 1
		C   -1.148376  -0.325195  -0.022113
		O   -1.335670  -1.412165  -0.472218
		C    0.020408   0.566638  -0.105517
		C    1.290381   0.073480   0.122753
		H   -2.011555   0.033754   0.494664
		H   -0.228100   1.532753  -0.362959
		H    1.297836  -1.018179   0.274145
		H    2.170744   0.630361   0.052955
*
