! B3LYP 6-31G
!TightSCF
%scf
 ConvForced true
 convergence tight
 MaxIter 500
end
 
%tddft 
 nroots 1
end

# 	20011
* xyz 0 1
		C   -0.649328  -0.469671   0.008164
		O   -0.551775  -1.612423  -0.009806
		C    0.651764   0.425483  -0.003388
		C    1.855235  -0.121184   0.023142
		H   -1.657948   0.093594   0.006612
		H    0.532616   1.610348  -0.016973
		H    1.987049  -1.330968   0.035300
		H    2.731935   0.450744  -0.215034
*
