! B3LYP 6-31G
!TightSCF
%scf
 ConvForced true
 convergence tight
 MaxIter 500
end
 
%tddft 
 nroots 1
end

# 	12220
* xyz 0 1
		C   -1.236370  -0.282131  -0.060769
		O   -1.201142  -1.504413  -0.073609
		C   -0.043082   0.636155  -0.132663
		C    1.188028   0.000329  -0.041246
		H   -2.144807   0.156311   0.293650
		H   -0.295018   1.602778   0.060722
		H    1.347484  -1.080920   0.216148
		H    2.352598   0.508451  -0.208669
*
