! B3LYP 6-31G
!TightSCF
%scf
 ConvForced true
 convergence tight
 MaxIter 500
end
 
%tddft 
 nroots 1
end

# 	16483
* xyz 0 1
		C   -1.257116  -0.357423   0.061397
		O   -1.331014  -1.485195  -0.271792
		C    0.010150   0.467778  -0.087689
		C    1.234111   0.045741   0.079664
		H   -2.043790   0.233375   0.457652
		H   -0.043102   1.518879  -0.308277
		H    1.390348  -1.053306   0.266053
		H    2.026608   0.577251  -0.157765
*
