! B3LYP 6-31G
!TightSCF
%scf
 ConvForced true
 convergence tight
 MaxIter 500
end
 
%tddft 
 nroots 1
end

# 	577
* xyz 0 1
		C   -1.189287  -0.321696  -0.063811
		O   -2.139644  -0.525205  -0.816561
		C    0.043505   0.399223  -0.334072
		C    1.129184   0.157366   0.325114
		H   -1.294958  -0.829241   0.951150
		H   -0.133449   0.996099  -1.095547
		H    1.264893  -0.451662   1.099647
		H    2.203919   0.550540  -0.030599
*
