! B3LYP 6-31G
!TightSCF
%scf
 ConvForced true
 convergence tight
 MaxIter 500
end
 
%tddft 
 nroots 1
end

# 	264
* xyz 0 1
		C   -1.186180  -0.341245   0.029623
		O   -1.359612  -1.479646  -0.369416
		C    0.006206   0.408312  -0.157714
		C    1.260990   0.018233   0.067688
		H   -2.029253   0.158970   0.538027
		H   -0.247473   1.525167  -0.296831
		H    1.532642  -0.979261   0.374050
		H    2.075940   0.660709  -0.158684
*
