! B3LYP 6-31G
!TightSCF
%scf
 ConvForced true
 convergence tight
 MaxIter 500
end
 
%tddft 
 nroots 1
end

# 	20030
* xyz 0 1
		C   -0.577075  -0.465155  -0.014001
		O   -0.573652  -1.646119   0.000317
		C    0.640582   0.461939  -0.032411
		C    1.813176  -0.137957   0.027570
		H   -1.467124   0.272565   0.204922
		H    0.607993   1.510190   0.084044
		H    1.842458  -1.265644  -0.011268
		H    2.755081   0.544547  -0.060684
*
