! B3LYP 6-31G
!TightSCF
%scf
 ConvForced true
 convergence tight
 MaxIter 500
end
 
%tddft 
 nroots 1
end

# 	18019
* xyz 0 1
		C   -1.152020  -0.389863  -0.028448
		O   -2.243124  -0.325975  -0.573521
		C    0.032471   0.391321  -0.428798
		C    1.269977   0.205507   0.168019
		H   -1.241044  -1.052479   0.869563
		H   -0.046733   0.993633  -1.138790
		H    1.282265  -0.630021   1.089946
		H    2.098815   0.735800   0.013440
*
