! B3LYP 6-31G
!TightSCF
%scf
 ConvForced true
 convergence tight
 MaxIter 500
end
 
%tddft 
 nroots 1
end

# 	16163
* xyz 0 1
		C   -1.217352  -0.271256   0.027147
		O   -1.255711  -1.424815  -0.310212
		C   -0.020320   0.590187  -0.050191
		C    1.194500   0.030026   0.111190
		H   -2.077796   0.147505   0.376131
		H   -0.113248   1.641118  -0.304184
		H    1.179614  -1.182215   0.308900
		H    2.254433   0.441717  -0.189313
*
