! B3LYP 6-31G
!TightSCF
%scf
 ConvForced true
 convergence tight
 MaxIter 500
end
 
%tddft 
 nroots 1
end

# 	15196
* xyz 0 1
		C   -1.128472  -0.314969  -0.082246
		O   -2.011311  -0.660532  -0.921648
		C    0.023417   0.398561  -0.290357
		C    1.183154   0.094932   0.308842
		H   -1.256759  -0.673140   1.013107
		H   -0.134427   1.092940  -1.202896
		H    1.181092  -0.765765   1.017473
		H    2.099099   0.748978   0.120879
*
