! B3LYP 6-31G
!TightSCF
%scf
 ConvForced true
 convergence tight
 MaxIter 500
end
 
%tddft 
 nroots 1
end

# 	7246
* xyz 0 1
		C   -1.153134  -0.274758  -0.013645
		O   -1.387639  -1.274515   0.645297
		C    0.054440   0.519340   0.161634
		C    1.210518   0.003422  -0.154809
		H   -1.908729  -0.148742  -0.795829
		H   -0.150294   1.531986   0.501443
		H    1.232115  -0.985652  -0.413613
		H    2.138150   0.628564   0.084613
*
