! B3LYP 6-31G
!TightSCF
%scf
 ConvForced true
 convergence tight
 MaxIter 500
end
 
%tddft 
 nroots 1
end

# 	26093
* xyz 0 1
		C   -0.563807  -0.441850   0.030654
		O   -0.606119  -1.663285  -0.015771
		C    0.599626   0.399533  -0.036572
		C    1.873905  -0.082538  -0.016335
		H   -1.433320   0.247082   0.121611
		H    0.520984   1.549024   0.024405
		H    1.861367  -1.186380   0.209262
		H    2.883402   0.524309   0.164911
*
