! B3LYP 6-31G
!TightSCF
%scf
 ConvForced true
 convergence tight
 MaxIter 500
end
 
%tddft 
 nroots 1
end

# 	19747
* xyz 0 1
		C   -1.262624  -0.331532   0.032639
		O   -1.719486  -1.141239   0.840394
		C    0.046474   0.437358   0.293202
		C    1.221037   0.078494  -0.126147
		H   -1.701583  -0.266742  -1.051522
		H   -0.120504   1.378479   0.803541
		H    1.313178  -0.808362  -0.787195
		H    2.170313   0.633236  -0.100925
*
